3
# CELL(abcABC):   35.23300    35.23300    35.23300    90.00000    90.00000    90.00000  Step:           0  Bead:       2 positions{atomic_unit}  cell{atomic_unit}
       O  0.00000e+00 -3.77945e-02  0.00000e+00
       H  1.41729e+00  9.44863e-01  0.00000e+00
       H -1.41729e+00  9.44863e-01  0.00000e+00
3
# CELL(abcABC):   35.23300    35.23300    35.23300    90.00000    90.00000    90.00000  Step:          40  Bead:       2 positions{atomic_unit}  cell{atomic_unit}
       O -2.27762e-02  5.43935e-02 -3.27202e-02
       H  1.25417e+00  1.08882e+00  3.48539e-01
       H -1.48333e+00  1.02265e+00 -4.64566e-01
