3
# CELL(abcABC):   35.23300    35.23300    35.23300    90.00000    90.00000    90.00000  Step:           0  Bead:       1 positions{atomic_unit}  cell{atomic_unit}
       O  0.00000e+00 -3.77945e-02  0.00000e+00
       H  1.41729e+00  9.44863e-01  0.00000e+00
       H -1.41729e+00  9.44863e-01  0.00000e+00
3
# CELL(abcABC):   35.23300    35.23300    35.23300    90.00000    90.00000    90.00000  Step:          40  Bead:       1 positions{atomic_unit}  cell{atomic_unit}
       O  8.54753e-03 -8.20211e-02  3.31697e-02
       H  1.45900e+00  8.86926e-01 -5.62765e-02
       H -1.37507e+00  8.36417e-01 -6.32888e-01
