140
# CELL(abcABC):   17.14040    19.79200    30.00000    90.00000    90.00000    90.00000  Step:           0  Bead:       2 positions{angstrom}  cell{angstrom}
       C  4.40317e+00 -9.99001e+00 -1.34984e-01
       C  5.84942e+00 -9.97412e+00 -4.21114e-02
       C  3.72325e+00 -1.11512e+01 -6.65966e-02
       C  6.57043e+00 -1.11445e+01 -2.12022e-01
       C  4.46892e+00 -7.51342e+00 -3.46822e-02
       C  5.85495e+00 -7.52167e+00 -1.79425e-01
       C  3.68187e+00 -8.80203e+00 -1.25906e-01
       C  6.55434e+00 -8.74534e+00 -2.41576e-01
       C  4.38163e+00 -5.07424e+00 -1.87944e-01
       C  5.84154e+00 -5.03827e+00 -2.20936e-01
       C  3.67128e+00 -6.25519e+00 -9.07343e-02
       C  6.55440e+00 -6.21330e+00 -1.14263e-01
       C  4.39062e+00 -2.59882e+00 -1.34943e-01
       C  5.92747e+00 -2.53312e+00 -2.99623e-01
       C  3.67624e+00 -3.88027e+00 -2.75518e-01
       C  6.49388e+00 -3.81694e+00 -2.15843e-01
       C  8.71808e+00 -9.95027e+00 -1.24654e-01
       C  1.01107e+01 -9.94729e+00 -5.95825e-02
       C  7.91942e+00 -1.11839e+01  7.70325e-02
       C  1.08986e+01 -1.12022e+01 -7.65552e-02
       C  8.72042e+00 -7.51945e+00 -1.36797e-01
       C  1.02188e+01 -7.47345e+00 -9.58510e-02
       C  8.01608e+00 -8.76757e+00 -2.06375e-01
       C  1.09074e+01 -8.69684e+00 -2.34502e-01
       C  8.65479e+00 -5.03173e+00 -6.42263e-02
       C  1.01705e+01 -4.98035e+00 -2.06951e-01
       C  8.03920e+00 -6.27521e+00 -1.72441e-01
       C  1.08442e+01 -6.20681e+00 -1.92740e-01
       C  8.66415e+00 -2.50949e+00 -1.88694e-01
       C  1.01060e+01 -2.54523e+00 -1.98711e-01
       C  7.89571e+00 -3.82760e+00 -2.45346e-01
       C  1.08698e+01 -3.69078e+00 -4.70710e-02
       C  1.29308e+01 -9.92302e+00 -1.37937e-01
       C  1.44473e+01 -9.89224e+00 -1.46032e-01
       C  1.23189e+01 -1.11923e+01  3.27001e-02
       C  1.50910e+01 -1.12046e+01 -1.69830e-01
       C  1.30040e+01 -7.49757e+00  1.20891e-02
       C  1.43599e+01 -7.46296e+00 -1.38787e-01
       C  1.22971e+01 -8.67623e+00 -2.06965e-01
       C  1.51197e+01 -8.64552e+00 -1.54298e-01
       C  1.30196e+01 -5.04705e+00 -1.07404e-01
       C  1.44994e+01 -5.00814e+00 -1.53424e-01
       C  1.22856e+01 -6.21934e+00 -1.73884e-01
       C  1.51366e+01 -6.25808e+00 -1.44883e-01
       C  1.29624e+01 -2.53584e+00 -3.28865e-02
       C  1.44808e+01 -2.51772e+00 -1.17091e-01
       C  1.23162e+01 -3.79175e+00 -1.32712e-01
       C  1.51557e+01 -3.68179e+00 -4.68638e-02
       C  6.98012e-02 -9.91759e+00 -2.10753e-01
       C  1.46545e+00 -9.99309e+00 -5.35752e-02
       C -6.57310e-01 -1.11540e+01 -1.93720e-01
       C  2.25865e+00 -1.12557e+01 -1.80628e-03
       C  1.30988e-01 -7.46992e+00 -4.17475e-02
       C  1.55189e+00 -7.51522e+00 -9.65462e-02
       C -5.85728e-01 -8.76911e+00 -1.60107e-01
       C  2.31078e+00 -8.78431e+00 -3.80322e-02
       C  1.77903e-01 -5.01101e+00 -5.25720e-03
       C  1.56337e+00 -4.92486e+00 -5.99096e-02
       C -5.50642e-01 -6.26412e+00 -1.50056e-01
       C  2.42925e+00 -6.27227e+00  1.06837e-02
       C  1.35181e-01 -2.51090e+00  2.62876e-02
       C  1.51411e+00 -2.53047e+00 -9.81734e-03
       C -5.82312e-01 -3.78037e+00 -5.12010e-02
       C  2.29644e+00 -3.78072e+00 -1.94822e-01
       C  4.44588e+00 -6.21767e-02 -6.23667e-02
       C  5.79245e+00 -1.44035e-01 -2.68188e-02
       C  3.78094e+00 -1.23399e+00 -1.16271e-01
       C  6.58054e+00 -1.31955e+00 -3.67405e-02
       C  4.44917e+00 -1.73885e+01 -4.28293e-02
       C  5.86387e+00 -1.73662e+01 -5.35569e-02
       C  3.73395e+00 -1.84856e+01 -1.34869e-01
       C  6.54571e+00 -1.85648e+01  1.61827e-01
       C  4.46749e+00 -1.48933e+01 -1.01414e-02
       C  5.83398e+00 -1.49469e+01 -3.87076e-02
       C  3.66502e+00 -1.60555e+01 -8.50565e-02
       C  6.59191e+00 -1.61133e+01  9.38049e-02
       C  4.41248e+00 -1.24003e+01 -9.37898e-02
       C  5.89467e+00 -1.24067e+01 -2.13188e-01
       C  3.67349e+00 -1.37282e+01 -7.50612e-02
       C  6.59768e+00 -1.36005e+01 -1.22141e-01
       C  8.71321e+00 -7.61331e-02 -3.40023e-02
       C  1.01783e+01 -7.22857e-03 -8.91376e-02
       C  7.97014e+00 -1.30675e+00  3.47368e-03
       C  1.07902e+01 -1.35167e+00 -1.28516e-01
       C  8.71547e+00 -1.72784e+01  2.22037e-01
       C  1.01394e+01 -1.73380e+01  1.27338e-01
       C  7.92653e+00 -1.87048e+01  5.40915e-02
       C  1.08057e+01 -1.85780e+01 -3.83598e-02
       C  8.66783e+00 -1.49207e+01 -2.27464e-02
       C  1.02225e+01 -1.49144e+01 -3.79073e-02
       C  8.01294e+00 -1.61085e+01  6.28775e-02
       C  1.08643e+01 -1.61601e+01 -3.27431e-03
       C  8.80011e+00 -1.24330e+01  6.92576e-02
       C  1.01276e+01 -1.24061e+01 -1.32425e-02
       C  8.01450e+00 -1.36515e+01 -1.17680e-02
       C  1.09308e+01 -1.36626e+01 -1.02724e-01
       C  1.29881e+01 -9.20381e-03 -1.03172e-01
       C  1.43664e+01 -4.08957e-02 -5.95218e-02
       C  1.23326e+01 -1.28715e+00 -2.02572e-02
       C  1.50854e+01 -1.25920e+00 -5.75523e-02
       C  1.30016e+01 -1.73636e+01 -1.02705e-01
       C  1.44697e+01 -1.73925e+01 -3.82905e-02
       C  1.21649e+01 -1.85732e+01 -1.47956e-01
       C  1.51159e+01 -1.85720e+01 -6.58290e-03
       C  1.30077e+01 -1.49513e+01 -2.20035e-01
       C  1.44316e+01 -1.48973e+01 -1.32325e-01
       C  1.22481e+01 -1.61337e+01 -1.40798e-01
       C  1.51406e+01 -1.61942e+01 -1.93916e-01
       C  1.30131e+01 -1.24013e+01  8.65627e-03
       C  1.44078e+01 -1.23674e+01 -1.09135e-01
       C  1.22907e+01 -1.36543e+01 -6.54456e-02
       C  1.50362e+01 -1.36465e+01 -8.99122e-02
       C  1.32231e-01 -8.35355e-02  2.56730e-02
       C  1.51489e+00 -1.26782e-02 -4.31753e-02
       C -6.40173e-01 -1.28775e+00 -2.21126e-02
       C  2.27199e+00 -1.26116e+00 -5.52352e-02
       C  1.09656e-01 -1.73153e+01 -2.34967e-01
       C  1.54648e+00 -1.73186e+01 -1.32522e-01
       C -6.30911e-01 -1.85748e+01 -9.42910e-02
       C  2.24856e+00 -1.86554e+01 -1.86042e-01
       C  9.82860e-02 -1.49089e+01 -1.31767e-01
       C  1.54921e+00 -1.49140e+01 -9.63398e-02
       C -5.96685e-01 -1.61412e+01 -1.57662e-01
       C  2.25284e+00 -1.61076e+01 -1.23997e-01
       C  1.94833e-01 -1.24607e+01 -1.10116e-01
       C  1.50523e+00 -1.24154e+01  6.41976e-02
       C -6.79097e-01 -1.37367e+01 -1.18442e-01
       C  2.31176e+00 -1.37615e+01  7.54328e-03
       H  5.86832e+00 -1.03084e+01  5.74052e+00
       C  5.47026e+00 -9.47056e+00  5.03524e+00
       C  5.87028e+00 -8.08878e+00  5.11208e+00
       H  6.97681e+00 -7.78702e+00  5.54516e+00
       C  4.99753e+00 -7.08401e+00  4.63668e+00
       H  5.28197e+00 -6.02389e+00  5.12376e+00
       C  3.98518e+00 -7.41619e+00  3.88075e+00
       H  3.21801e+00 -6.58781e+00  3.55750e+00
       C  3.71823e+00 -8.74691e+00  3.52545e+00
       H  2.65505e+00 -8.94253e+00  2.94146e+00
       C  4.49506e+00 -9.81723e+00  4.08142e+00
       H  4.28404e+00 -1.08918e+01  3.72483e+00
140
# CELL(abcABC):   17.14040    19.79200    30.00000    90.00000    90.00000    90.00000  Step:         100  Bead:       2 positions{angstrom}  cell{angstrom}
       C  4.39143e+00 -9.94824e+00 -9.73103e-02
       C  5.81434e+00 -9.87453e+00 -4.91508e-02
       C  3.72677e+00 -1.12026e+01 -1.11427e-01
       C  6.55565e+00 -1.11916e+01 -9.32243e-02
       C  4.41325e+00 -7.44100e+00 -9.21502e-02
       C  5.83105e+00 -7.39212e+00 -1.60440e-01
       C  3.67102e+00 -8.67125e+00 -3.61251e-02
       C  6.53502e+00 -8.71250e+00 -1.35902e-01
       C  4.38513e+00 -4.96889e+00  4.33580e-02
       C  5.77532e+00 -5.00383e+00 -2.06085e-01
       C  3.71399e+00 -6.23326e+00 -4.52227e-02
       C  6.56870e+00 -6.22700e+00 -2.08297e-01
       C  4.44202e+00 -2.50816e+00 -7.51749e-03
       C  5.85184e+00 -2.48911e+00 -8.65771e-02
       C  3.72542e+00 -3.78732e+00  1.71129e-02
       C  6.58914e+00 -3.76234e+00 -1.86369e-01
       C  8.75711e+00 -9.91424e+00 -9.46573e-02
       C  1.02174e+01 -9.83494e+00  4.99013e-02
       C  8.01756e+00 -1.11671e+01 -8.64043e-02
       C  1.08746e+01 -1.11196e+01  5.91340e-02
       C  8.63431e+00 -7.40410e+00 -2.88901e-01
       C  1.00840e+01 -7.39276e+00 -1.37799e-01
       C  7.90260e+00 -8.69405e+00 -6.47293e-02
       C  1.08738e+01 -8.62612e+00 -1.39143e-01
       C  8.68604e+00 -5.04102e+00 -9.18345e-02
       C  1.00845e+01 -4.89354e+00 -8.26826e-02
       C  7.99515e+00 -6.17134e+00 -2.39519e-01
       C  1.08516e+01 -6.20757e+00  1.15872e-02
       C  8.80051e+00 -2.49739e+00 -8.56948e-02
       C  1.01169e+01 -2.53832e+00 -4.19884e-02
       C  7.86946e+00 -3.75544e+00 -1.26546e-01
       C  1.09005e+01 -3.71326e+00 -8.78239e-02
       C  1.29704e+01 -9.93187e+00 -1.73299e-01
       C  1.43979e+01 -9.95729e+00 -2.25474e-01
       C  1.22154e+01 -1.11824e+01 -2.77732e-01
       C  1.51397e+01 -1.11755e+01 -1.40965e-01
       C  1.29656e+01 -7.53699e+00 -2.97195e-01
       C  1.43675e+01 -7.46472e+00 -3.78471e-01
       C  1.22553e+01 -8.65978e+00 -2.48460e-01
       C  1.50722e+01 -8.73567e+00 -1.60194e-01
       C  1.29738e+01 -4.98836e+00 -1.29779e-01
       C  1.44072e+01 -4.99020e+00 -5.90608e-02
       C  1.22353e+01 -6.25305e+00 -2.07113e-01
       C  1.51239e+01 -6.27536e+00 -1.81150e-01
       C  1.30979e+01 -2.49399e+00 -3.77562e-02
       C  1.44866e+01 -2.48934e+00 -1.70810e-02
       C  1.22905e+01 -3.80890e+00 -1.52592e-01
       C  1.51782e+01 -3.79262e+00 -4.95087e-03
       C  1.49425e-01 -1.00309e+01 -3.97142e-02
       C  1.49065e+00 -9.97501e+00 -7.82768e-02
       C -5.73749e-01 -1.11648e+01 -9.05194e-02
       C  2.27832e+00 -1.11377e+01 -1.52403e-01
       C  5.81543e-02 -7.47042e+00 -2.31959e-01
       C  1.67853e+00 -7.51310e+00 -2.98029e-01
       C -5.88331e-01 -8.81713e+00 -2.06318e-01
       C  2.27500e+00 -8.74195e+00 -7.91452e-02
       C  8.65725e-02 -5.09868e+00 -2.41664e-01
       C  1.59864e+00 -4.95049e+00 -2.81839e-01
       C -5.82218e-01 -6.27783e+00 -2.95562e-01
       C  2.33896e+00 -6.22337e+00 -9.78476e-02
       C  1.23039e-01 -2.52832e+00 -2.09592e-01
       C  1.62242e+00 -2.56251e+00 -1.68298e-01
       C -5.69526e-01 -3.81591e+00 -2.14419e-01
       C  2.28358e+00 -3.81147e+00 -5.31872e-02
       C  4.37161e+00 -1.10930e-02 -1.73207e-02
       C  5.85197e+00 -5.80599e-02 -1.00079e-01
       C  3.69375e+00 -1.29925e+00 -8.43422e-02
       C  6.64916e+00 -1.29235e+00 -1.96656e-01
       C  4.38339e+00 -1.74406e+01 -1.48531e-01
       C  5.84478e+00 -1.74101e+01  4.52363e-02
       C  3.64185e+00 -1.86639e+01 -5.55286e-02
       C  6.60352e+00 -1.86493e+01 -4.06194e-02
       C  4.41621e+00 -1.49336e+01 -8.95428e-02
       C  5.86320e+00 -1.49755e+01  6.34001e-02
       C  3.74181e+00 -1.60881e+01 -1.16634e-01
       C  6.63482e+00 -1.61943e+01  1.03767e-01
       C  4.36137e+00 -1.24541e+01 -3.65497e-02
       C  5.80030e+00 -1.25314e+01  2.56448e-02
       C  3.78361e+00 -1.36888e+01 -1.45284e-01
       C  6.49717e+00 -1.36797e+01  5.83107e-02
       C  8.74620e+00 -7.35746e-03 -1.41897e-02
       C  1.01920e+01 -1.16918e-01  4.88678e-02
       C  8.01770e+00 -1.24401e+00 -5.76442e-02
       C  1.09089e+01 -1.33474e+00 -2.00056e-03
       C  8.73545e+00 -1.74292e+01 -5.27785e-02
       C  1.01570e+01 -1.72971e+01 -7.29455e-02
       C  8.01883e+00 -1.85613e+01  7.58415e-02
       C  1.09013e+01 -1.84746e+01 -3.92247e-02
       C  8.70094e+00 -1.49725e+01  1.84657e-01
       C  1.01788e+01 -1.49209e+01  7.11183e-02
       C  8.00280e+00 -1.61883e+01 -2.42797e-02
       C  1.09181e+01 -1.60755e+01 -1.19896e-01
       C  8.63441e+00 -1.24354e+01  1.55959e-02
       C  1.00767e+01 -1.23903e+01  5.89587e-02
       C  8.02585e+00 -1.36125e+01  6.51859e-02
       C  1.08720e+01 -1.36551e+01  8.63842e-02
       C  1.29408e+01 -8.66860e-02 -1.39266e-01
       C  1.45087e+01 -5.27367e-02  5.78746e-02
       C  1.22885e+01 -1.26300e+00 -1.25222e-01
       C  1.51439e+01 -1.26184e+00  1.84848e-02
       C  1.30002e+01 -1.73659e+01  2.00386e-02
       C  1.44964e+01 -1.73933e+01 -2.14400e-01
       C  1.23079e+01 -1.85652e+01 -3.07853e-02
       C  1.50452e+01 -1.85319e+01 -5.72027e-02
       C  1.30276e+01 -1.48849e+01 -3.64993e-02
       C  1.45151e+01 -1.48931e+01 -7.50735e-02
       C  1.23023e+01 -1.61292e+01  5.34837e-02
       C  1.50833e+01 -1.61756e+01 -9.08478e-02
       C  1.29750e+01 -1.24308e+01 -1.91162e-01
       C  1.43390e+01 -1.23839e+01 -5.68691e-02
       C  1.23275e+01 -1.36642e+01 -5.19798e-02
       C  1.50954e+01 -1.36759e+01 -1.02606e-01
       C  1.72458e-01 -2.69778e-02 -2.10734e-02
       C  1.59729e+00 -1.60904e-02 -2.57356e-02
       C -5.13613e-01 -1.29237e+00 -1.35012e-01
       C  2.26840e+00 -1.28419e+00 -6.91453e-02
       C  2.71299e-01 -1.73585e+01 -1.21255e-01
       C  1.60292e+00 -1.73869e+01  7.50570e-02
       C -5.91161e-01 -1.86287e+01 -8.18681e-02
       C  2.31186e+00 -1.86648e+01 -3.48516e-03
       C  2.36529e-01 -1.49526e+01 -1.90490e-01
       C  1.56327e+00 -1.49292e+01 -1.70727e-01
       C -5.90884e-01 -1.61418e+01 -9.43292e-02
       C  2.32371e+00 -1.62189e+01 -8.02774e-02
       C  1.59015e-01 -1.24707e+01 -8.53715e-02
       C  1.59629e+00 -1.24904e+01 -1.20192e-01
       C -6.03214e-01 -1.36591e+01 -1.80415e-01
       C  2.27607e+00 -1.36783e+01 -1.46978e-01
       H  6.04553e+00 -1.04126e+01  5.38456e+00
       C  5.33611e+00 -9.51051e+00  4.98568e+00
       C  5.86726e+00 -8.24269e+00  5.04860e+00
       H  6.90698e+00 -7.85048e+00  5.35067e+00
       C  5.15356e+00 -7.18309e+00  4.62251e+00
       H  5.72294e+00 -6.28167e+00  4.76869e+00
       C  4.01388e+00 -7.37227e+00  3.83795e+00
       H  3.33930e+00 -6.45904e+00  3.82602e+00
       C  3.48182e+00 -8.63608e+00  3.74500e+00
       H  2.47324e+00 -8.84562e+00  2.99777e+00
       C  4.17460e+00 -9.65782e+00  4.24805e+00
       H  3.84641e+00 -1.07825e+01  3.98251e+00
