140
# CELL(abcABC):   17.14040    19.79200    30.00000    90.00000    90.00000    90.00000  Step:           0  Bead:      30 positions{angstrom}  cell{angstrom}
       C  4.38199e+00 -9.99212e+00 -1.21780e-01
       C  5.83170e+00 -9.99696e+00 -7.30095e-02
       C  3.77544e+00 -1.11366e+01 -3.39201e-02
       C  6.55404e+00 -1.11652e+01 -2.41260e-01
       C  4.47172e+00 -7.46704e+00 -4.46498e-02
       C  5.87891e+00 -7.48297e+00 -1.53758e-01
       C  3.74604e+00 -8.78992e+00 -3.40328e-02
       C  6.55183e+00 -8.75925e+00 -1.82940e-01
       C  4.38405e+00 -5.05000e+00 -1.61795e-01
       C  5.84904e+00 -5.10749e+00 -1.61370e-01
       C  3.70849e+00 -6.28760e+00 -7.55126e-02
       C  6.56878e+00 -6.24653e+00 -9.54018e-02
       C  4.43979e+00 -2.57865e+00 -1.11064e-01
       C  5.91255e+00 -2.51422e+00 -2.37334e-01
       C  3.69985e+00 -3.84183e+00 -2.98700e-01
       C  6.53784e+00 -3.76364e+00 -1.52924e-01
       C  8.74401e+00 -9.98377e+00 -1.14855e-01
       C  1.01492e+01 -9.95309e+00 -8.24830e-02
       C  7.92430e+00 -1.12086e+01  7.30120e-02
       C  1.09268e+01 -1.11989e+01 -4.39246e-02
       C  8.71378e+00 -7.54703e+00 -9.32287e-02
       C  1.02093e+01 -7.46479e+00 -1.15598e-01
       C  7.99256e+00 -8.75629e+00 -1.12166e-01
       C  1.09099e+01 -8.73211e+00 -1.79776e-01
       C  8.76935e+00 -4.96883e+00 -9.98178e-02
       C  1.01931e+01 -4.98255e+00 -2.00370e-01
       C  8.06092e+00 -6.27882e+00 -1.09833e-01
       C  1.08464e+01 -6.24426e+00 -2.31969e-01
       C  8.68694e+00 -2.54828e+00 -2.47940e-01
       C  1.01553e+01 -2.49619e+00 -2.70619e-01
       C  7.94669e+00 -3.80443e+00 -1.97941e-01
       C  1.08858e+01 -3.77741e+00 -1.42351e-02
       C  1.28990e+01 -9.92651e+00 -1.69546e-01
       C  1.43989e+01 -9.89721e+00 -1.42107e-01
       C  1.23318e+01 -1.11450e+01  5.49330e-02
       C  1.51109e+01 -1.12081e+01 -1.69282e-01
       C  1.30212e+01 -7.42223e+00 -3.46386e-02
       C  1.43919e+01 -7.49177e+00 -1.95625e-01
       C  1.22807e+01 -8.71163e+00 -1.57004e-01
       C  1.50968e+01 -8.61267e+00 -1.56905e-01
       C  1.29818e+01 -4.96726e+00 -1.18211e-01
       C  1.44890e+01 -5.01593e+00 -1.28915e-01
       C  1.23095e+01 -6.17597e+00 -1.72203e-01
       C  1.51340e+01 -6.24096e+00 -1.21960e-01
       C  1.30307e+01 -2.53963e+00  2.13473e-02
       C  1.44672e+01 -2.47702e+00 -3.35765e-02
       C  1.22758e+01 -3.79086e+00 -1.55212e-01
       C  1.51330e+01 -3.69745e+00 -4.78228e-02
       C  5.90461e-02 -9.94639e+00 -1.73045e-01
       C  1.53197e+00 -1.00013e+01 -4.28485e-02
       C -6.04247e-01 -1.11641e+01 -1.33755e-01
       C  2.29782e+00 -1.12631e+01 -6.11518e-02
       C  1.65602e-01 -7.50242e+00 -8.00556e-02
       C  1.55152e+00 -7.48634e+00 -1.11593e-01
       C -6.12250e-01 -8.80893e+00 -1.72481e-01
       C  2.21218e+00 -8.72880e+00 -6.07960e-02
       C  1.69179e-01 -5.01920e+00 -5.72600e-02
       C  1.58159e+00 -5.01815e+00 -5.53035e-02
       C -5.19839e-01 -6.29811e+00 -1.54113e-01
       C  2.31864e+00 -6.21977e+00  1.31378e-02
       C  1.40983e-01 -2.50084e+00 -1.55476e-02
       C  1.53697e+00 -2.53265e+00  2.21939e-02
       C -5.75147e-01 -3.79232e+00 -4.18796e-02
       C  2.28664e+00 -3.72259e+00 -1.74107e-01
       C  4.44217e+00 -7.84974e-02 -1.04249e-01
       C  5.88113e+00 -1.08889e-01 -1.88613e-02
       C  3.69062e+00 -1.23594e+00 -9.46324e-02
       C  6.60267e+00 -1.30370e+00 -6.30977e-02
       C  4.38346e+00 -1.73341e+01 -7.20169e-02
       C  5.84688e+00 -1.73897e+01 -6.81296e-02
       C  3.68458e+00 -1.85917e+01 -1.32049e-01
       C  6.62190e+00 -1.86216e+01  1.42242e-01
       C  4.46250e+00 -1.49030e+01 -1.13572e-02
       C  5.84989e+00 -1.49061e+01 -2.83105e-02
       C  3.63747e+00 -1.60937e+01 -2.17087e-03
       C  6.57783e+00 -1.61522e+01  5.42876e-02
       C  4.42694e+00 -1.24486e+01 -1.00402e-01
       C  5.92216e+00 -1.24212e+01 -1.57685e-01
       C  3.72924e+00 -1.36498e+01 -4.56303e-02
       C  6.62462e+00 -1.36223e+01 -1.09513e-01
       C  8.73830e+00 -5.33484e-02 -2.60989e-02
       C  1.01709e+01 -3.39776e-02 -1.48074e-01
       C  8.01652e+00 -1.28157e+00 -1.73849e-04
       C  1.07603e+01 -1.28610e+00 -9.50403e-02
       C  8.71416e+00 -1.73865e+01  2.72599e-01
       C  1.01161e+01 -1.73228e+01  1.31729e-01
       C  7.93409e+00 -1.86620e+01  8.15006e-02
       C  1.07605e+01 -1.86027e+01 -2.46573e-02
       C  8.69097e+00 -1.48948e+01 -2.64468e-02
       C  1.01716e+01 -1.49314e+01 -4.64579e-02
       C  8.02879e+00 -1.61003e+01  1.60028e-02
       C  1.08770e+01 -1.61438e+01 -2.49440e-02
       C  8.76984e+00 -1.24482e+01  1.23769e-01
       C  1.01362e+01 -1.24112e+01 -2.70512e-02
       C  7.95714e+00 -1.36427e+01 -5.07481e-02
       C  1.09130e+01 -1.36778e+01 -1.38994e-02
       C  1.29658e+01 -2.45434e-03 -1.46603e-01
       C  1.43897e+01 -3.16986e-05  7.30966e-02
       C  1.23221e+01 -1.31672e+00  4.12982e-02
       C  1.50920e+01 -1.24756e+00 -1.80463e-02
       C  1.29984e+01 -1.73984e+01 -6.74799e-02
       C  1.45240e+01 -1.73826e+01  5.76241e-03
       C  1.21817e+01 -1.85943e+01 -1.48559e-01
       C  1.51011e+01 -1.86115e+01  7.04096e-02
       C  1.29786e+01 -1.49424e+01 -2.03736e-01
       C  1.44070e+01 -1.49195e+01 -9.83527e-02
       C  1.22457e+01 -1.62245e+01 -1.75965e-01
       C  1.51004e+01 -1.62032e+01 -1.33043e-01
       C  1.30146e+01 -1.24092e+01  9.84776e-03
       C  1.44332e+01 -1.23944e+01 -9.54757e-02
       C  1.23434e+01 -1.35845e+01 -3.86908e-02
       C  1.50432e+01 -1.36194e+01 -5.07722e-02
       C  1.80160e-01 -4.38653e-02  9.82461e-03
       C  1.59807e+00 -9.93046e-02  2.11385e-02
       C -6.43079e-01 -1.30531e+00  5.51791e-02
       C  2.31224e+00 -1.32658e+00 -1.48195e-02
       C  1.04736e-01 -1.73646e+01 -2.30281e-01
       C  1.55091e+00 -1.73181e+01 -1.83252e-01
       C -6.84496e-01 -1.86192e+01 -4.30959e-02
       C  2.27117e+00 -1.86264e+01 -2.14421e-01
       C  1.50037e-01 -1.48782e+01 -1.59597e-01
       C  1.56055e+00 -1.49267e+01 -1.06052e-01
       C -6.13229e-01 -1.61829e+01 -1.89631e-01
       C  2.27508e+00 -1.61417e+01 -1.63565e-01
       C  1.69384e-01 -1.24202e+01 -4.78317e-02
       C  1.49396e+00 -1.24632e+01  7.96733e-02
       C -6.43684e-01 -1.36618e+01 -8.13160e-02
       C  2.26788e+00 -1.37414e+01  8.74391e-02
       H  5.88007e+00 -1.02654e+01  5.73263e+00
       C  5.49809e+00 -9.41433e+00  5.04172e+00
       C  5.81929e+00 -8.12225e+00  5.13125e+00
       H  6.94639e+00 -8.13057e+00  5.58055e+00
       C  4.98520e+00 -7.09038e+00  4.63175e+00
       H  5.24086e+00 -6.08806e+00  5.08061e+00
       C  3.98317e+00 -7.39133e+00  3.85187e+00
       H  3.28026e+00 -6.58745e+00  3.56901e+00
       C  3.72932e+00 -8.77601e+00  3.49313e+00
       H  2.89936e+00 -8.81598e+00  2.67261e+00
       C  4.51222e+00 -9.81909e+00  4.07420e+00
       H  4.24256e+00 -1.09751e+01  3.56955e+00
140
# CELL(abcABC):   17.14040    19.79200    30.00000    90.00000    90.00000    90.00000  Step:         100  Bead:      30 positions{angstrom}  cell{angstrom}
       C  4.42368e+00 -9.97005e+00 -1.21888e-01
       C  5.83659e+00 -9.94314e+00 -4.70205e-02
       C  3.71327e+00 -1.11886e+01 -1.15661e-01
       C  6.47033e+00 -1.11841e+01 -6.07994e-02
       C  4.41303e+00 -7.44188e+00 -6.11555e-02
       C  5.80949e+00 -7.42456e+00 -1.00826e-01
       C  3.63395e+00 -8.72411e+00 -6.26608e-02
       C  6.54651e+00 -8.73449e+00 -1.00624e-01
       C  4.44491e+00 -5.00021e+00  6.05858e-02
       C  5.82529e+00 -5.00884e+00 -2.43256e-01
       C  3.66334e+00 -6.19766e+00 -5.75083e-02
       C  6.57841e+00 -6.22203e+00 -2.51116e-01
       C  4.48802e+00 -2.52660e+00  3.13224e-02
       C  5.88755e+00 -2.50301e+00 -3.35022e-02
       C  3.75402e+00 -3.80260e+00  2.37594e-02
       C  6.54986e+00 -3.71768e+00 -1.76711e-01
       C  8.72245e+00 -9.93068e+00 -9.74199e-02
       C  1.01622e+01 -9.86085e+00 -3.45268e-04
       C  7.99534e+00 -1.11970e+01 -8.02508e-02
       C  1.09016e+01 -1.11080e+01  7.26205e-02
       C  8.63472e+00 -7.45240e+00 -2.74684e-01
       C  1.01109e+01 -7.36343e+00 -1.56654e-01
       C  7.88882e+00 -8.66583e+00 -4.60308e-02
       C  1.08387e+01 -8.60107e+00 -1.26874e-01
       C  8.64174e+00 -4.99892e+00 -9.71970e-02
       C  1.01543e+01 -4.90296e+00 -9.47008e-02
       C  8.03747e+00 -6.18516e+00 -1.90200e-01
       C  1.07840e+01 -6.15024e+00 -2.92925e-02
       C  8.71265e+00 -2.56154e+00 -1.21969e-01
       C  1.01162e+01 -2.50465e+00 -1.11545e-01
       C  7.93702e+00 -3.72592e+00 -1.05172e-01
       C  1.08912e+01 -3.71556e+00 -5.35295e-02
       C  1.29723e+01 -9.92171e+00 -1.76000e-01
       C  1.43770e+01 -9.96423e+00 -1.38584e-01
       C  1.22587e+01 -1.11968e+01 -2.66142e-01
       C  1.51711e+01 -1.11985e+01 -1.02901e-01
       C  1.29556e+01 -7.48210e+00 -3.39450e-01
       C  1.43587e+01 -7.48498e+00 -3.80858e-01
       C  1.22567e+01 -8.67387e+00 -2.41456e-01
       C  1.51025e+01 -8.70576e+00 -1.56463e-01
       C  1.29351e+01 -4.97150e+00 -1.44013e-01
       C  1.43925e+01 -5.00740e+00 -3.48094e-02
       C  1.22318e+01 -6.25287e+00 -1.55448e-01
       C  1.50726e+01 -6.29182e+00 -1.53126e-01
       C  1.30854e+01 -2.50645e+00  3.15847e-03
       C  1.44838e+01 -2.49277e+00  5.89153e-02
       C  1.22444e+01 -3.83494e+00 -1.64836e-01
       C  1.51969e+01 -3.82487e+00  5.74753e-03
       C  1.38041e-01 -9.97434e+00 -3.83585e-02
       C  1.51225e+00 -9.95825e+00 -6.70573e-02
       C -5.41862e-01 -1.11775e+01 -1.05215e-01
       C  2.31817e+00 -1.12347e+01 -1.94502e-01
       C  8.95990e-02 -7.47024e+00 -3.03068e-01
       C  1.66010e+00 -7.49175e+00 -3.27226e-01
       C -6.00402e-01 -8.78633e+00 -2.19115e-01
       C  2.25780e+00 -8.73188e+00 -3.81046e-02
       C  7.01798e-02 -5.05792e+00 -2.67255e-01
       C  1.59083e+00 -4.98429e+00 -2.43467e-01
       C -6.43060e-01 -6.31598e+00 -2.95863e-01
       C  2.31927e+00 -6.20503e+00 -9.34650e-02
       C  1.16047e-01 -2.52230e+00 -2.23393e-01
       C  1.56778e+00 -2.58428e+00 -1.74290e-01
       C -6.01878e-01 -3.76633e+00 -2.32479e-01
       C  2.27807e+00 -3.79743e+00 -5.37145e-02
       C  4.31317e+00 -8.49813e-02 -5.62898e-02
       C  5.88154e+00 -1.13011e-01 -1.19688e-01
       C  3.77235e+00 -1.30216e+00 -7.60493e-02
       C  6.63801e+00 -1.28731e+00 -1.02045e-01
       C  4.44373e+00 -1.74096e+01 -1.16012e-01
       C  5.84793e+00 -1.74287e+01  6.46312e-02
       C  3.67294e+00 -1.87022e+01 -1.45429e-02
       C  6.57105e+00 -1.86141e+01 -3.83186e-02
       C  4.34954e+00 -1.48781e+01 -8.66517e-02
       C  5.83288e+00 -1.49434e+01  1.46258e-01
       C  3.76285e+00 -1.60941e+01 -1.58568e-01
       C  6.62714e+00 -1.61701e+01  7.81624e-02
       C  4.37940e+00 -1.24910e+01 -8.73258e-02
       C  5.87196e+00 -1.24793e+01  7.27811e-02
       C  3.69821e+00 -1.36522e+01 -1.80364e-01
       C  6.56455e+00 -1.37409e+01  8.73426e-02
       C  8.80918e+00 -3.78080e-02  6.63204e-02
       C  1.01773e+01 -8.80397e-02  2.22337e-02
       C  8.03066e+00 -1.26831e+00 -1.10332e-01
       C  1.08630e+01 -1.38038e+00  1.55280e-02
       C  8.71296e+00 -1.74205e+01 -6.76057e-02
       C  1.01176e+01 -1.73635e+01 -1.04749e-01
       C  8.04554e+00 -1.85666e+01  2.77320e-02
       C  1.08616e+01 -1.85347e+01 -4.16452e-02
       C  8.75452e+00 -1.49031e+01  1.57537e-01
       C  1.01890e+01 -1.48433e+01  3.55091e-02
       C  7.99098e+00 -1.61330e+01 -2.10106e-02
       C  1.08521e+01 -1.61722e+01 -9.42095e-02
       C  8.62053e+00 -1.24090e+01 -5.98266e-02
       C  1.01247e+01 -1.23570e+01  1.23419e-01
       C  7.93169e+00 -1.36263e+01  4.74289e-02
       C  1.08714e+01 -1.35845e+01  5.21882e-02
       C  1.30219e+01 -3.27515e-02 -1.21248e-01
       C  1.45115e+01 -5.55779e-02  8.51568e-03
       C  1.23778e+01 -1.27423e+00 -3.24834e-02
       C  1.51392e+01 -1.24554e+00  7.86759e-03
       C  1.30509e+01 -1.73473e+01  6.37275e-02
       C  1.44506e+01 -1.74093e+01 -2.36244e-01
       C  1.23012e+01 -1.85726e+01  6.24872e-03
       C  1.51145e+01 -1.86323e+01 -8.32898e-02
       C  1.29992e+01 -1.48578e+01  1.49936e-02
       C  1.44509e+01 -1.48949e+01 -7.24691e-02
       C  1.22686e+01 -1.61699e+01 -3.96756e-02
       C  1.51355e+01 -1.61744e+01 -1.42008e-01
       C  1.29539e+01 -1.24505e+01 -1.42324e-01
       C  1.43448e+01 -1.23923e+01 -8.35007e-02
       C  1.23409e+01 -1.36430e+01 -9.62183e-02
       C  1.51284e+01 -1.36988e+01 -1.28121e-01
       C  1.31032e-01 -2.26274e-03 -4.72671e-02
       C  1.61213e+00 -6.36008e-02 -2.15589e-02
       C -5.66460e-01 -1.28364e+00 -1.11583e-01
       C  2.27003e+00 -1.30372e+00 -8.89027e-02
       C  2.46363e-01 -1.73955e+01 -1.84257e-01
       C  1.63410e+00 -1.73997e+01  9.39627e-02
       C -5.47832e-01 -1.86197e+01 -9.89987e-02
       C  2.31788e+00 -1.86481e+01  2.71891e-02
       C  1.45311e-01 -1.49641e+01 -2.18359e-01
       C  1.59126e+00 -1.49597e+01 -2.26177e-01
       C -5.88234e-01 -1.61627e+01 -1.30702e-01
       C  2.33142e+00 -1.62216e+01 -7.82816e-02
       C  1.04699e-01 -1.24639e+01 -8.61509e-02
       C  1.63457e+00 -1.24979e+01 -1.68266e-01
       C -5.87320e-01 -1.36565e+01 -2.70288e-01
       C  2.25802e+00 -1.36708e+01 -1.30725e-01
       H  5.80618e+00 -1.03502e+01  5.55541e+00
       C  5.35414e+00 -9.50661e+00  4.97953e+00
       C  5.86709e+00 -8.20990e+00  5.07911e+00
       H  6.85696e+00 -7.88778e+00  5.43437e+00
       C  5.13963e+00 -7.15770e+00  4.57051e+00
       H  5.63346e+00 -6.21321e+00  4.65999e+00
       C  3.97969e+00 -7.32099e+00  3.89150e+00
       H  3.36368e+00 -6.50379e+00  3.71514e+00
       C  3.43519e+00 -8.63481e+00  3.71807e+00
       H  2.60312e+00 -8.70418e+00  2.99642e+00
       C  4.15244e+00 -9.68229e+00  4.24980e+00
       H  3.72303e+00 -1.06559e+01  4.00841e+00
