140
# CELL(abcABC):   17.14040    19.79200    30.00000    90.00000    90.00000    90.00000  Step:           0  Bead:      20 positions{angstrom}  cell{angstrom}
       C  4.43571e+00 -1.00081e+01 -1.30088e-01
       C  5.87726e+00 -1.00246e+01 -1.55381e-01
       C  3.69383e+00 -1.13012e+01 -7.52212e-02
       C  6.59702e+00 -1.11777e+01 -2.23614e-01
       C  4.39216e+00 -7.48406e+00 -6.60201e-02
       C  5.88654e+00 -7.55994e+00 -2.60910e-01
       C  3.64388e+00 -8.70225e+00  3.08860e-02
       C  6.58269e+00 -8.75292e+00 -1.81293e-01
       C  4.41075e+00 -5.00476e+00 -1.37694e-01
       C  5.84752e+00 -5.00863e+00 -1.21147e-01
       C  3.72879e+00 -6.25932e+00 -1.69302e-01
       C  6.63059e+00 -6.33269e+00 -1.31653e-01
       C  4.42392e+00 -2.51198e+00 -1.62872e-01
       C  5.88321e+00 -2.55220e+00 -2.22514e-01
       C  3.67428e+00 -3.75310e+00 -2.52972e-01
       C  6.57972e+00 -3.73912e+00 -2.24562e-01
       C  8.67930e+00 -9.98997e+00 -1.43416e-01
       C  1.01576e+01 -9.95111e+00 -1.25566e-01
       C  8.08523e+00 -1.12360e+01  1.10484e-02
       C  1.09028e+01 -1.11619e+01 -8.30738e-02
       C  8.76233e+00 -7.52026e+00 -1.08407e-01
       C  1.02047e+01 -7.42686e+00 -1.19444e-01
       C  7.99172e+00 -8.71503e+00 -1.44917e-01
       C  1.09181e+01 -8.73753e+00 -2.64195e-01
       C  8.76777e+00 -4.94455e+00 -8.38076e-02
       C  1.01304e+01 -5.01388e+00 -1.80697e-01
       C  8.00120e+00 -6.25185e+00 -1.74099e-01
       C  1.08264e+01 -6.25271e+00 -2.46435e-01
       C  8.72958e+00 -2.57661e+00 -1.88871e-01
       C  1.01317e+01 -2.49302e+00 -2.79415e-01
       C  8.00826e+00 -3.74302e+00 -3.06643e-01
       C  1.08470e+01 -3.77528e+00 -2.86866e-02
       C  1.28972e+01 -9.89893e+00 -8.67802e-02
       C  1.43932e+01 -9.85999e+00 -1.50043e-01
       C  1.22580e+01 -1.11504e+01  3.68481e-02
       C  1.51622e+01 -1.11709e+01 -1.72779e-01
       C  1.30235e+01 -7.47127e+00 -3.84989e-02
       C  1.43886e+01 -7.36784e+00 -1.32457e-01
       C  1.23138e+01 -8.69541e+00 -1.98824e-01
       C  1.51017e+01 -8.64595e+00 -1.81131e-01
       C  1.29655e+01 -4.91500e+00 -9.13390e-02
       C  1.44061e+01 -4.96320e+00 -1.89080e-01
       C  1.22966e+01 -6.21721e+00 -1.23045e-01
       C  1.52270e+01 -6.27554e+00 -1.96731e-01
       C  1.29886e+01 -2.49407e+00  4.28206e-02
       C  1.44103e+01 -2.46756e+00 -1.27755e-01
       C  1.23384e+01 -3.73273e+00 -1.67637e-01
       C  1.50583e+01 -3.77606e+00 -1.02955e-01
       C  1.40972e-01 -9.96081e+00 -1.88760e-01
       C  1.57578e+00 -1.00168e+01  1.40649e-02
       C -6.02086e-01 -1.12792e+01 -2.12243e-01
       C  2.33711e+00 -1.13242e+01 -3.73435e-02
       C  2.11629e-01 -7.45066e+00 -1.40845e-01
       C  1.59928e+00 -7.50985e+00 -1.06097e-01
       C -6.58803e-01 -8.70388e+00 -1.74596e-01
       C  2.19641e+00 -8.82603e+00 -5.55898e-02
       C  8.18768e-02 -4.94175e+00 -1.20507e-01
       C  1.60240e+00 -5.04527e+00 -5.13193e-02
       C -5.63496e-01 -6.25585e+00 -1.66492e-01
       C  2.24463e+00 -6.28227e+00 -1.00190e-02
       C  1.10611e-01 -2.57405e+00  8.99736e-02
       C  1.53205e+00 -2.51344e+00  2.90490e-02
       C -5.19929e-01 -3.73690e+00 -6.26899e-02
       C  2.29086e+00 -3.79529e+00 -1.27486e-01
       C  4.39727e+00 -1.55855e-01 -3.30938e-02
       C  5.89855e+00 -4.83303e-02 -1.34179e-03
       C  3.71321e+00 -1.36349e+00 -9.51123e-02
       C  6.54625e+00 -1.29693e+00 -6.83010e-02
       C  4.38085e+00 -1.72854e+01 -7.23894e-02
       C  5.86409e+00 -1.74331e+01 -4.83336e-02
       C  3.72498e+00 -1.86111e+01 -1.48348e-01
       C  6.45027e+00 -1.86632e+01  1.52521e-01
       C  4.40340e+00 -1.48532e+01 -5.03039e-02
       C  5.82756e+00 -1.48725e+01  1.61585e-02
       C  3.71686e+00 -1.61957e+01 -2.50898e-03
       C  6.61794e+00 -1.61425e+01  5.10160e-02
       C  4.49745e+00 -1.23959e+01 -5.36160e-02
       C  5.82636e+00 -1.23576e+01 -1.36300e-01
       C  3.71268e+00 -1.36939e+01 -6.35657e-02
       C  6.61225e+00 -1.36904e+01 -1.12394e-01
       C  8.76619e+00 -2.64823e-02 -6.58932e-02
       C  1.01367e+01 -7.08745e-02 -9.85974e-02
       C  8.08008e+00 -1.27891e+00 -8.29048e-03
       C  1.08132e+01 -1.31205e+00 -1.67617e-01
       C  8.69442e+00 -1.74337e+01  2.54829e-01
       C  1.01344e+01 -1.73733e+01  2.24738e-01
       C  7.93521e+00 -1.86625e+01  3.55011e-02
       C  1.08081e+01 -1.86120e+01 -8.80846e-02
       C  8.71766e+00 -1.48904e+01  8.84103e-04
       C  1.01005e+01 -1.48714e+01 -1.73371e-02
       C  7.96567e+00 -1.61158e+01  1.35100e-01
       C  1.08750e+01 -1.60451e+01 -3.98957e-03
       C  8.78387e+00 -1.24375e+01  2.76039e-02
       C  1.01851e+01 -1.24054e+01 -6.97186e-02
       C  8.00507e+00 -1.36872e+01  1.66463e-02
       C  1.09786e+01 -1.36129e+01 -2.71130e-02
       C  1.29790e+01 -2.50446e-02 -1.82411e-01
       C  1.42957e+01 -4.61675e-02 -2.00489e-02
       C  1.21997e+01 -1.28154e+00  2.40714e-02
       C  1.51351e+01 -1.19780e+00 -7.27333e-02
       C  1.29942e+01 -1.73774e+01 -1.00989e-01
       C  1.43634e+01 -1.73125e+01 -4.34612e-02
       C  1.22577e+01 -1.85453e+01 -1.36059e-01
       C  1.50932e+01 -1.85678e+01 -3.41803e-03
       C  1.29904e+01 -1.48922e+01 -1.59007e-01
       C  1.44367e+01 -1.48955e+01 -1.11000e-01
       C  1.22331e+01 -1.61073e+01 -1.70696e-01
       C  1.51533e+01 -1.61640e+01 -1.73377e-01
       C  1.30133e+01 -1.24516e+01  2.67849e-02
       C  1.44665e+01 -1.23242e+01 -1.25299e-01
       C  1.23368e+01 -1.36559e+01 -1.08773e-02
       C  1.50907e+01 -1.36203e+01 -1.07777e-01
       C  1.26431e-01 -4.32899e-02  1.63542e-02
       C  1.52435e+00 -6.34645e-02 -1.71365e-02
       C -5.60230e-01 -1.29589e+00 -1.56998e-02
       C  2.23753e+00 -1.31333e+00 -3.68454e-02
       C  1.62027e-01 -1.73109e+01 -2.17269e-01
       C  1.53109e+00 -1.73455e+01 -1.44754e-01
       C -5.83351e-01 -1.86084e+01 -2.71070e-02
       C  2.26268e+00 -1.86222e+01 -2.14876e-01
       C  1.26548e-01 -1.48857e+01 -1.64843e-01
       C  1.51905e+00 -1.48720e+01 -1.62487e-01
       C -5.64563e-01 -1.61274e+01 -2.38467e-01
       C  2.26275e+00 -1.60605e+01 -1.94500e-01
       C  8.09851e-02 -1.24948e+01 -8.10148e-02
       C  1.60683e+00 -1.24778e+01  4.64225e-02
       C -6.42440e-01 -1.36818e+01 -7.07059e-02
       C  2.20327e+00 -1.36716e+01  7.49650e-02
       H  5.93936e+00 -1.03249e+01  5.60352e+00
       C  5.42731e+00 -9.44981e+00  4.94531e+00
       C  5.82838e+00 -8.13399e+00  5.20087e+00
       H  6.74820e+00 -7.72035e+00  5.73599e+00
       C  5.07453e+00 -7.14030e+00  4.64376e+00
       H  5.14122e+00 -6.10845e+00  5.02957e+00
       C  3.98309e+00 -7.44823e+00  3.89306e+00
       H  3.22452e+00 -6.67466e+00  3.58326e+00
       C  3.75287e+00 -8.75821e+00  3.53942e+00
       H  2.92021e+00 -8.97887e+00  2.76858e+00
       C  4.51544e+00 -9.80402e+00  4.00699e+00
       H  4.27461e+00 -1.07731e+01  3.80556e+00
140
# CELL(abcABC):   17.14040    19.79200    30.00000    90.00000    90.00000    90.00000  Step:         100  Bead:      20 positions{angstrom}  cell{angstrom}
       C  4.42256e+00 -9.97823e+00 -8.64429e-02
       C  5.81162e+00 -9.90768e+00 -5.34438e-02
       C  3.69800e+00 -1.12815e+01 -1.06486e-01
       C  6.47612e+00 -1.11894e+01 -2.67896e-02
       C  4.37706e+00 -7.43804e+00  5.10179e-02
       C  5.83477e+00 -7.53735e+00 -1.30971e-01
       C  3.62015e+00 -8.76537e+00 -1.17927e-01
       C  6.53776e+00 -8.69785e+00 -1.03487e-01
       C  4.45666e+00 -5.02215e+00  1.38503e-02
       C  5.82351e+00 -5.07626e+00 -1.88516e-01
       C  3.72351e+00 -6.19101e+00 -3.52890e-02
       C  6.61661e+00 -6.22053e+00 -1.93758e-01
       C  4.46603e+00 -2.51860e+00 -8.89414e-02
       C  5.90831e+00 -2.53719e+00 -4.83783e-02
       C  3.72332e+00 -3.81583e+00 -3.28406e-02
       C  6.57978e+00 -3.76155e+00 -1.02474e-01
       C  8.68935e+00 -9.85956e+00 -1.16137e-01
       C  1.00866e+01 -9.91627e+00 -5.27512e-02
       C  7.96276e+00 -1.11326e+01 -9.89585e-02
       C  1.08271e+01 -1.11140e+01  8.75706e-02
       C  8.70993e+00 -7.47643e+00 -2.55887e-01
       C  1.01075e+01 -7.47961e+00 -1.58754e-01
       C  7.98680e+00 -8.76704e+00 -1.33792e-01
       C  1.08270e+01 -8.64297e+00 -1.91845e-01
       C  8.61868e+00 -4.94424e+00 -1.46204e-01
       C  1.01716e+01 -4.91157e+00 -7.02308e-02
       C  8.03916e+00 -6.20032e+00 -2.99332e-01
       C  1.08865e+01 -6.20741e+00 -1.45720e-01
       C  8.70750e+00 -2.52507e+00 -4.90463e-02
       C  1.01683e+01 -2.41826e+00 -7.03618e-02
       C  8.04914e+00 -3.74131e+00 -1.58649e-01
       C  1.08320e+01 -3.69165e+00 -1.24538e-01
       C  1.29258e+01 -9.90097e+00 -1.23197e-01
       C  1.43988e+01 -9.96715e+00 -2.87601e-01
       C  1.22903e+01 -1.11805e+01 -1.97763e-01
       C  1.51020e+01 -1.12001e+01 -1.16655e-01
       C  1.30198e+01 -7.54957e+00 -3.56545e-01
       C  1.44687e+01 -7.53274e+00 -4.08552e-01
       C  1.22557e+01 -8.72900e+00 -2.61319e-01
       C  1.51196e+01 -8.68512e+00 -1.78544e-01
       C  1.30115e+01 -4.98390e+00 -4.10998e-02
       C  1.44536e+01 -5.10364e+00 -9.55844e-02
       C  1.22412e+01 -6.25483e+00 -1.94310e-01
       C  1.51493e+01 -6.28306e+00 -2.32649e-01
       C  1.30701e+01 -2.44900e+00 -5.77260e-02
       C  1.44054e+01 -2.52894e+00 -1.40270e-02
       C  1.23108e+01 -3.70272e+00 -1.37237e-01
       C  1.51661e+01 -3.78549e+00 -2.52090e-02
       C  1.03467e-01 -9.95340e+00 -6.71773e-02
       C  1.57948e+00 -9.96512e+00 -7.37995e-02
       C -5.88875e-01 -1.12847e+01 -1.66666e-02
       C  2.32973e+00 -1.11929e+01 -2.62489e-01
       C  8.69047e-02 -7.50742e+00 -2.54102e-01
       C  1.51197e+00 -7.48608e+00 -2.31905e-01
       C -5.88925e-01 -8.77803e+00 -1.14929e-01
       C  2.26436e+00 -8.75132e+00 -7.17885e-02
       C  2.31466e-01 -4.96805e+00 -2.34949e-01
       C  1.54110e+00 -5.03359e+00 -1.49649e-01
       C -6.33014e-01 -6.27263e+00 -3.51778e-01
       C  2.26431e+00 -6.19438e+00 -1.16790e-01
       C  1.41478e-01 -2.47423e+00 -1.43462e-01
       C  1.52548e+00 -2.50472e+00 -7.33262e-02
       C -5.49494e-01 -3.75574e+00 -1.83751e-01
       C  2.30050e+00 -3.81024e+00 -5.64887e-02
       C  4.38772e+00 -1.03295e-01 -3.92108e-02
       C  5.82277e+00 -5.96641e-02 -1.67701e-01
       C  3.70039e+00 -1.32187e+00 -7.43673e-02
       C  6.59343e+00 -1.32039e+00 -1.35282e-01
       C  4.44307e+00 -1.74643e+01 -1.54774e-01
       C  5.95457e+00 -1.74540e+01 -1.64352e-04
       C  3.71914e+00 -1.86552e+01 -6.99358e-03
       C  6.58471e+00 -1.85969e+01 -1.74755e-02
       C  4.47149e+00 -1.49670e+01 -3.04898e-02
       C  5.81331e+00 -1.48946e+01  1.22678e-01
       C  3.74601e+00 -1.61188e+01 -1.50295e-01
       C  6.55176e+00 -1.61626e+01  9.98149e-02
       C  4.32023e+00 -1.24626e+01 -4.07742e-02
       C  5.90130e+00 -1.23968e+01  4.22865e-02
       C  3.72305e+00 -1.37315e+01 -1.63381e-01
       C  6.51706e+00 -1.37061e+01  9.37065e-02
       C  8.73133e+00 -2.84412e-02  2.78396e-02
       C  1.02389e+01 -5.60470e-02  1.68329e-02
       C  8.03782e+00 -1.25498e+00 -1.39205e-01
       C  1.09172e+01 -1.31113e+00  2.36056e-02
       C  8.70005e+00 -1.73404e+01 -5.86238e-02
       C  1.02237e+01 -1.73480e+01 -1.72857e-01
       C  8.06627e+00 -1.86108e+01  3.94952e-02
       C  1.09196e+01 -1.86121e+01  3.35403e-03
       C  8.69621e+00 -1.48921e+01  1.02337e-01
       C  1.01628e+01 -1.49347e+01  8.64005e-02
       C  8.00854e+00 -1.61177e+01  1.75156e-02
       C  1.08407e+01 -1.61313e+01 -1.02321e-01
       C  8.62372e+00 -1.23756e+01 -8.59944e-02
       C  1.01374e+01 -1.24269e+01  2.71416e-02
       C  7.97378e+00 -1.36132e+01  8.54337e-02
       C  1.09101e+01 -1.36427e+01 -7.44188e-03
       C  1.30892e+01  2.31347e-02 -1.05391e-01
       C  1.43532e+01 -5.47989e-02 -3.31563e-02
       C  1.23271e+01 -1.25858e+00 -1.20789e-01
       C  1.51303e+01 -1.29489e+00  1.44843e-02
       C  1.30772e+01 -1.73919e+01 -6.61327e-03
       C  1.44323e+01 -1.72938e+01 -2.17699e-01
       C  1.22789e+01 -1.85976e+01  2.22489e-02
       C  1.51932e+01 -1.86472e+01 -8.57468e-02
       C  1.29864e+01 -1.49531e+01 -3.38967e-04
       C  1.43921e+01 -1.49324e+01 -7.72166e-02
       C  1.22781e+01 -1.61609e+01  2.81982e-02
       C  1.51345e+01 -1.60825e+01 -8.51990e-02
       C  1.29663e+01 -1.24465e+01 -1.13973e-01
       C  1.44170e+01 -1.24782e+01 -1.01433e-01
       C  1.23356e+01 -1.36858e+01 -1.20075e-01
       C  1.51496e+01 -1.36662e+01 -1.25660e-01
       C  1.65383e-01 -4.91768e-03 -5.34319e-02
       C  1.59710e+00 -1.57640e-01  2.68504e-02
       C -5.53558e-01 -1.27670e+00 -8.11150e-02
       C  2.29133e+00 -1.27805e+00 -4.18380e-02
       C  1.84003e-01 -1.73237e+01 -1.98128e-01
       C  1.61151e+00 -1.73606e+01  5.34627e-02
       C -5.36037e-01 -1.85501e+01 -5.23785e-02
       C  2.33105e+00 -1.85534e+01  3.37961e-03
       C  2.41480e-01 -1.49104e+01 -3.11356e-01
       C  1.58583e+00 -1.49571e+01 -2.18438e-01
       C -5.60027e-01 -1.60990e+01 -1.29473e-01
       C  2.31312e+00 -1.62236e+01 -1.80001e-01
       C  2.15621e-01 -1.24383e+01 -1.58098e-01
       C  1.62106e+00 -1.24585e+01 -1.63289e-01
       C -5.09960e-01 -1.37256e+01 -2.24501e-01
       C  2.30181e+00 -1.37638e+01 -1.06234e-01
       H  5.83461e+00 -1.02570e+01  5.57533e+00
       C  5.31033e+00 -9.47354e+00  4.95599e+00
       C  5.86772e+00 -8.18483e+00  5.06291e+00
       H  6.89681e+00 -7.85818e+00  5.46055e+00
       C  5.14619e+00 -7.12353e+00  4.46809e+00
       H  5.54281e+00 -6.09438e+00  4.54817e+00
       C  3.89151e+00 -7.37003e+00  3.99612e+00
       H  3.27948e+00 -6.42247e+00  3.96247e+00
       C  3.47672e+00 -8.63369e+00  3.75242e+00
       H  2.54923e+00 -8.65525e+00  3.21899e+00
       C  4.15221e+00 -9.76186e+00  4.18928e+00
       H  3.92402e+00 -1.08583e+01  4.07164e+00
