140
# CELL(abcABC):   17.14040    19.79200    30.00000    90.00000    90.00000    90.00000  Step:           0  Bead:       8 positions{angstrom}  cell{angstrom}
       C  4.43282e+00 -1.00319e+01 -8.53833e-02
       C  5.81359e+00 -9.90777e+00 -1.75677e-01
       C  3.71509e+00 -1.11784e+01 -7.21769e-02
       C  6.64575e+00 -1.11879e+01 -2.17538e-01
       C  4.47808e+00 -7.50311e+00 -7.48599e-02
       C  5.89871e+00 -7.55337e+00 -1.38735e-01
       C  3.70122e+00 -8.76453e+00 -1.16343e-01
       C  6.55242e+00 -8.75734e+00 -2.22058e-01
       C  4.44250e+00 -4.99126e+00 -1.88784e-01
       C  5.83003e+00 -4.99789e+00 -1.73568e-01
       C  3.65716e+00 -6.21838e+00 -8.81464e-02
       C  6.53917e+00 -6.24430e+00 -1.91931e-01
       C  4.49950e+00 -2.49236e+00 -1.33763e-01
       C  5.88682e+00 -2.56468e+00 -2.56735e-01
       C  3.74882e+00 -3.82338e+00 -2.85030e-01
       C  6.55353e+00 -3.82362e+00 -2.86909e-01
       C  8.70847e+00 -9.97045e+00 -9.84463e-02
       C  1.01520e+01 -9.93123e+00 -5.67461e-02
       C  7.92594e+00 -1.12073e+01  9.19852e-02
       C  1.09023e+01 -1.11750e+01 -1.20380e-01
       C  8.75840e+00 -7.49737e+00 -2.12458e-01
       C  1.02039e+01 -7.45002e+00 -1.61135e-01
       C  7.95757e+00 -8.73042e+00 -1.73815e-01
       C  1.08552e+01 -8.70844e+00 -2.41943e-01
       C  8.64097e+00 -5.02341e+00 -6.60914e-02
       C  1.01283e+01 -4.95810e+00 -1.64387e-01
       C  8.07237e+00 -6.29398e+00 -1.63002e-01
       C  1.08699e+01 -6.19908e+00 -1.87720e-01
       C  8.67289e+00 -2.44769e+00 -1.91250e-01
       C  1.00768e+01 -2.56589e+00 -2.15726e-01
       C  7.89402e+00 -3.85316e+00 -2.88549e-01
       C  1.08875e+01 -3.76101e+00 -5.78357e-03
       C  1.29685e+01 -9.87131e+00 -1.22808e-01
       C  1.44247e+01 -9.83895e+00 -1.71598e-01
       C  1.23049e+01 -1.11136e+01 -2.29861e-02
       C  1.51420e+01 -1.11418e+01 -2.15489e-01
       C  1.30410e+01 -7.48380e+00  5.85692e-02
       C  1.44241e+01 -7.42166e+00 -3.57509e-02
       C  1.23141e+01 -8.59744e+00 -2.25048e-01
       C  1.51879e+01 -8.69676e+00 -1.57635e-01
       C  1.29629e+01 -5.04036e+00 -1.61532e-01
       C  1.44073e+01 -4.99950e+00 -8.67622e-02
       C  1.22578e+01 -6.23466e+00 -1.40533e-01
       C  1.51076e+01 -6.26037e+00 -1.40298e-01
       C  1.30501e+01 -2.53709e+00 -1.30973e-01
       C  1.44318e+01 -2.44474e+00 -1.10239e-01
       C  1.23532e+01 -3.76841e+00 -8.90488e-02
       C  1.51339e+01 -3.70381e+00 -6.56220e-02
       C  8.71747e-02 -9.94243e+00 -2.13038e-01
       C  1.54308e+00 -9.98057e+00 -2.69927e-02
       C -6.84357e-01 -1.12351e+01 -1.75360e-01
       C  2.29894e+00 -1.12994e+01 -5.20159e-02
       C  1.10671e-01 -7.45417e+00 -2.43566e-02
       C  1.54574e+00 -7.49261e+00 -5.77707e-02
       C -5.80688e-01 -8.69264e+00 -1.91500e-01
       C  2.25996e+00 -8.79181e+00 -2.25252e-02
       C  1.34455e-01 -5.02687e+00 -3.03839e-02
       C  1.64367e+00 -4.91162e+00 -9.66247e-02
       C -5.67042e-01 -6.24303e+00 -1.21080e-01
       C  2.31302e+00 -6.27311e+00 -1.70387e-02
       C  1.37170e-01 -2.46931e+00  1.43495e-02
       C  1.56956e+00 -2.54583e+00  5.13999e-02
       C -6.08516e-01 -3.74500e+00 -1.69371e-01
       C  2.32061e+00 -3.72562e+00 -1.46909e-01
       C  4.40231e+00 -2.89738e-02 -5.82981e-02
       C  5.81352e+00 -1.06420e-01 -1.50205e-02
       C  3.79049e+00 -1.32580e+00 -4.03905e-02
       C  6.56721e+00 -1.33175e+00 -3.93047e-02
       C  4.46739e+00 -1.73333e+01 -4.13456e-02
       C  5.86995e+00 -1.73381e+01 -5.39840e-02
       C  3.68966e+00 -1.85758e+01 -1.55377e-01
       C  6.45599e+00 -1.85271e+01  1.19045e-01
       C  4.45406e+00 -1.48876e+01 -2.22460e-02
       C  5.81545e+00 -1.49625e+01 -1.03094e-02
       C  3.68065e+00 -1.60383e+01 -4.23025e-02
       C  6.57817e+00 -1.61095e+01  8.94326e-02
       C  4.47459e+00 -1.24420e+01 -1.25833e-02
       C  5.87288e+00 -1.24384e+01 -1.85370e-01
       C  3.63663e+00 -1.36405e+01 -2.15757e-04
       C  6.59690e+00 -1.37205e+01 -1.26262e-01
       C  8.75108e+00 -7.41160e-02  2.73430e-03
       C  1.00998e+01 -3.13636e-02 -7.53463e-02
       C  7.95963e+00 -1.33087e+00  9.65224e-03
       C  1.08754e+01 -1.33013e+00 -1.51888e-01
       C  8.65787e+00 -1.73287e+01  1.93942e-01
       C  1.01934e+01 -1.73672e+01  2.03397e-01
       C  7.98254e+00 -1.86666e+01  3.98289e-02
       C  1.08005e+01 -1.85212e+01 -1.09572e-01
       C  8.70236e+00 -1.48767e+01 -7.73532e-03
       C  1.02213e+01 -1.48481e+01 -2.67132e-02
       C  7.95442e+00 -1.60785e+01  7.99849e-02
       C  1.07936e+01 -1.62005e+01 -1.28437e-02
       C  8.73122e+00 -1.24555e+01  9.87797e-02
       C  1.02296e+01 -1.24975e+01 -3.00029e-02
       C  8.02027e+00 -1.36966e+01 -5.63667e-02
       C  1.08293e+01 -1.36035e+01  3.59680e-02
       C  1.28744e+01 -3.24639e-03 -2.01276e-01
       C  1.43015e+01 -2.60980e-02  9.97845e-03
       C  1.22721e+01 -1.23254e+00 -1.01238e-02
       C  1.50628e+01 -1.20552e+00 -9.25810e-02
       C  1.29558e+01 -1.74349e+01 -1.24862e-01
       C  1.44950e+01 -1.73650e+01 -5.37914e-02
       C  1.22218e+01 -1.85167e+01 -1.93302e-01
       C  1.51614e+01 -1.85763e+01  5.12089e-02
       C  1.30144e+01 -1.49247e+01 -2.27958e-01
       C  1.44204e+01 -1.49284e+01 -2.02676e-01
       C  1.22976e+01 -1.60940e+01 -7.16159e-02
       C  1.51426e+01 -1.61229e+01 -2.30034e-01
       C  1.30385e+01 -1.23821e+01  3.40775e-02
       C  1.43821e+01 -1.24280e+01 -1.48819e-01
       C  1.23667e+01 -1.36690e+01 -4.16672e-02
       C  1.51493e+01 -1.36950e+01 -6.36922e-02
       C  1.32759e-01 -4.41757e-02  1.50280e-02
       C  1.47420e+00 -7.63049e-02 -5.00111e-02
       C -5.85137e-01 -1.31486e+00 -1.24147e-02
       C  2.28115e+00 -1.30498e+00 -2.99816e-02
       C  1.26595e-01 -1.73750e+01 -2.77980e-01
       C  1.56051e+00 -1.73218e+01 -1.34662e-01
       C -5.08748e-01 -1.85604e+01 -1.57502e-01
       C  2.30702e+00 -1.86770e+01 -1.20893e-01
       C  6.31154e-02 -1.49087e+01 -1.29758e-01
       C  1.51736e+00 -1.49781e+01 -1.05676e-01
       C -5.25815e-01 -1.61375e+01 -1.65599e-01
       C  2.28430e+00 -1.61188e+01 -2.08021e-01
       C  1.26681e-01 -1.23969e+01 -1.23564e-01
       C  1.55741e+00 -1.24215e+01  2.66727e-02
       C -6.28662e-01 -1.37767e+01 -1.17833e-01
       C  2.27582e+00 -1.37119e+01  4.83378e-02
       H  6.08549e+00 -1.02285e+01  5.57740e+00
       C  5.50563e+00 -9.44625e+00  5.06079e+00
       C  5.82255e+00 -8.09270e+00  5.14099e+00
       H  6.96043e+00 -7.72409e+00  5.30050e+00
       C  5.07964e+00 -7.12584e+00  4.66380e+00
       H  5.34765e+00 -6.24450e+00  5.10139e+00
       C  4.00703e+00 -7.43478e+00  3.82786e+00
       H  3.19610e+00 -6.55266e+00  3.43744e+00
       C  3.69790e+00 -8.77026e+00  3.54101e+00
       H  2.80118e+00 -9.14923e+00  2.88871e+00
       C  4.47774e+00 -9.79719e+00  4.08079e+00
       H  4.21863e+00 -1.07501e+01  3.69681e+00
140
# CELL(abcABC):   17.14040    19.79200    30.00000    90.00000    90.00000    90.00000  Step:         100  Bead:       8 positions{angstrom}  cell{angstrom}
       C  4.34174e+00 -9.95157e+00 -7.04454e-02
       C  5.82218e+00 -9.91412e+00  7.18807e-03
       C  3.78231e+00 -1.12046e+01 -7.46220e-02
       C  6.57865e+00 -1.12012e+01 -1.20405e-01
       C  4.40816e+00 -7.43925e+00 -7.74966e-02
       C  5.89607e+00 -7.49251e+00 -1.95909e-01
       C  3.69229e+00 -8.70535e+00 -3.92509e-02
       C  6.51380e+00 -8.68162e+00 -2.41389e-01
       C  4.42269e+00 -4.98092e+00  4.50306e-02
       C  5.82078e+00 -5.01373e+00 -1.97443e-01
       C  3.71820e+00 -6.21308e+00 -1.23550e-02
       C  6.59149e+00 -6.24137e+00 -1.68234e-01
       C  4.45384e+00 -2.45212e+00 -8.63488e-02
       C  5.87985e+00 -2.52723e+00 -7.07108e-02
       C  3.68335e+00 -3.73736e+00  7.91084e-02
       C  6.59212e+00 -3.79227e+00 -2.21858e-01
       C  8.74885e+00 -9.90592e+00 -9.20550e-02
       C  1.01821e+01 -9.84975e+00  7.59609e-02
       C  7.96964e+00 -1.11354e+01 -7.33419e-02
       C  1.08256e+01 -1.11895e+01  1.11680e-02
       C  8.65413e+00 -7.45063e+00 -2.16297e-01
       C  1.01554e+01 -7.39685e+00 -5.10079e-02
       C  7.93803e+00 -8.73813e+00 -9.57863e-02
       C  1.08947e+01 -8.66514e+00 -5.01461e-02
       C  8.71131e+00 -4.98964e+00 -1.20729e-01
       C  1.01004e+01 -4.96135e+00 -1.25292e-01
       C  7.99813e+00 -6.17589e+00 -2.68203e-01
       C  1.07750e+01 -6.19316e+00 -1.04688e-01
       C  8.73006e+00 -2.47857e+00 -5.00395e-02
       C  1.01181e+01 -2.51597e+00  9.74296e-04
       C  7.97233e+00 -3.75358e+00 -2.29456e-01
       C  1.08340e+01 -3.72060e+00 -6.75800e-02
       C  1.29928e+01 -9.93226e+00 -1.48936e-01
       C  1.43355e+01 -9.92674e+00 -2.20836e-01
       C  1.22149e+01 -1.11935e+01 -2.34232e-01
       C  1.51133e+01 -1.11906e+01 -1.24163e-01
       C  1.29360e+01 -7.55611e+00 -3.21377e-01
       C  1.43944e+01 -7.46661e+00 -4.07483e-01
       C  1.22299e+01 -8.70600e+00 -2.79333e-01
       C  1.51886e+01 -8.74101e+00 -1.90794e-01
       C  1.31087e+01 -4.97505e+00 -1.21395e-01
       C  1.44601e+01 -5.02244e+00 -6.35163e-02
       C  1.22342e+01 -6.26245e+00 -2.12074e-01
       C  1.51279e+01 -6.24506e+00 -1.63111e-01
       C  1.30540e+01 -2.47394e+00 -2.38715e-02
       C  1.44386e+01 -2.45376e+00 -5.29335e-02
       C  1.23196e+01 -3.73344e+00 -1.22820e-01
       C  1.51795e+01 -3.72341e+00 -6.67640e-02
       C  1.31749e-01 -1.00532e+01 -5.42689e-02
       C  1.55029e+00 -9.92567e+00 -3.92531e-02
       C -5.39135e-01 -1.11635e+01  2.74840e-02
       C  2.26565e+00 -1.11305e+01 -1.68759e-01
       C  1.48375e-01 -7.42275e+00 -2.34065e-01
       C  1.62230e+00 -7.47695e+00 -2.83812e-01
       C -6.15651e-01 -8.85153e+00 -1.80900e-01
       C  2.24353e+00 -8.73048e+00 -1.21648e-01
       C  1.33532e-01 -4.98186e+00 -2.42255e-01
       C  1.57576e+00 -4.98475e+00 -2.17748e-01
       C -5.98987e-01 -6.25537e+00 -3.20583e-01
       C  2.30684e+00 -6.21092e+00 -1.23259e-01
       C  1.38549e-01 -2.52340e+00 -1.80514e-01
       C  1.64279e+00 -2.49437e+00 -1.19631e-01
       C -5.94522e-01 -3.86344e+00 -2.05415e-01
       C  2.24913e+00 -3.73931e+00 -9.66528e-02
       C  4.43401e+00 -8.27945e-02 -4.46396e-02
       C  5.78107e+00 -6.46163e-02 -1.42682e-01
       C  3.65170e+00 -1.35264e+00 -8.28986e-02
       C  6.56541e+00 -1.27987e+00 -1.78274e-01
       C  4.36601e+00 -1.74201e+01 -1.08393e-01
       C  5.93189e+00 -1.73949e+01  6.24979e-02
       C  3.68516e+00 -1.86879e+01 -2.61342e-02
       C  6.59242e+00 -1.86306e+01 -5.21779e-02
       C  4.44480e+00 -1.48983e+01 -2.49683e-02
       C  5.90417e+00 -1.49457e+01  4.55499e-02
       C  3.74082e+00 -1.61516e+01 -1.35828e-01
       C  6.56303e+00 -1.61802e+01  1.36586e-01
       C  4.40113e+00 -1.25062e+01 -8.69842e-03
       C  5.76495e+00 -1.24857e+01  1.59685e-02
       C  3.70212e+00 -1.37498e+01 -1.23184e-01
       C  6.46562e+00 -1.36668e+01  1.19990e-01
       C  8.73844e+00 -7.00445e-02  1.96884e-02
       C  1.02161e+01  7.02394e-03  1.78735e-02
       C  8.02978e+00 -1.18534e+00 -9.95701e-02
       C  1.09335e+01 -1.28033e+00  7.82005e-03
       C  8.76102e+00 -1.73990e+01 -9.61220e-02
       C  1.01525e+01 -1.73656e+01 -1.95190e-02
       C  8.02526e+00 -1.85707e+01  7.05338e-02
       C  1.08649e+01 -1.85710e+01  1.14437e-02
       C  8.69019e+00 -1.49784e+01  1.10908e-01
       C  1.01473e+01 -1.48592e+01  1.04760e-01
       C  8.01746e+00 -1.61764e+01 -6.39361e-03
       C  1.09047e+01 -1.60826e+01 -1.30753e-01
       C  8.64670e+00 -1.24209e+01 -3.03097e-02
       C  1.00603e+01 -1.23973e+01  1.00722e-02
       C  7.99722e+00 -1.36248e+01  4.42302e-02
       C  1.08886e+01 -1.36372e+01  8.64289e-02
       C  1.30034e+01 -6.95691e-02 -1.22484e-01
       C  1.44295e+01  1.49851e-02  4.29088e-02
       C  1.23356e+01 -1.26821e+00 -7.74480e-02
       C  1.51219e+01 -1.31253e+00  1.34231e-01
       C  1.30367e+01 -1.74077e+01  3.05420e-02
       C  1.44978e+01 -1.73617e+01 -1.36173e-01
       C  1.23302e+01 -1.85800e+01 -1.04565e-02
       C  1.51330e+01 -1.85063e+01 -1.22123e-01
       C  1.30827e+01 -1.49300e+01 -3.64877e-02
       C  1.44491e+01 -1.49062e+01 -1.26513e-01
       C  1.22792e+01 -1.61767e+01  9.05077e-02
       C  1.51469e+01 -1.61146e+01 -1.11610e-01
       C  1.29871e+01 -1.24025e+01 -2.24984e-01
       C  1.44695e+01 -1.23674e+01 -5.33386e-02
       C  1.22767e+01 -1.36514e+01 -1.05313e-01
       C  1.50602e+01 -1.36125e+01 -9.26390e-02
       C  1.15711e-01  1.04437e-02 -3.03663e-02
       C  1.61603e+00 -9.52684e-03 -2.77551e-02
       C -5.05328e-01 -1.31100e+00 -1.23747e-01
       C  2.26572e+00 -1.33925e+00 -1.06825e-01
       C  2.34142e-01 -1.73412e+01 -1.34014e-01
       C  1.58216e+00 -1.74424e+01  7.33527e-02
       C -5.43786e-01 -1.86423e+01 -1.02231e-01
       C  2.24497e+00 -1.86806e+01 -2.00887e-04
       C  1.81060e-01 -1.48898e+01 -1.75810e-01
       C  1.62448e+00 -1.49679e+01 -1.30091e-01
       C -5.72616e-01 -1.61137e+01 -1.19075e-01
       C  2.34824e+00 -1.61563e+01 -1.19811e-01
       C  9.93422e-02 -1.24640e+01 -7.82206e-02
       C  1.52781e+00 -1.25332e+01 -1.38335e-01
       C -5.96229e-01 -1.36725e+01 -1.40208e-01
       C  2.27210e+00 -1.37111e+01 -1.74925e-01
       H  5.87229e+00 -1.03284e+01  5.38030e+00
       C  5.35904e+00 -9.45320e+00  4.97230e+00
       C  5.86941e+00 -8.23057e+00  5.11823e+00
       H  6.87907e+00 -7.93915e+00  5.46062e+00
       C  5.12970e+00 -7.15422e+00  4.58371e+00
       H  5.64533e+00 -6.23598e+00  4.64549e+00
       C  3.94866e+00 -7.39716e+00  3.97020e+00
       H  3.28759e+00 -6.31433e+00  3.80140e+00
       C  3.56185e+00 -8.66378e+00  3.70708e+00
       H  2.62912e+00 -8.53060e+00  3.19239e+00
       C  4.17855e+00 -9.65718e+00  4.22043e+00
       H  3.79394e+00 -1.06573e+01  4.11750e+00
