140
# CELL(abcABC):   17.14040    19.79200    30.00000    90.00000    90.00000    90.00000  Step:           0  Bead:      11 positions{angstrom}  cell{angstrom}
       C  4.41774e+00 -1.00095e+01 -1.13250e-01
       C  5.85197e+00 -9.93952e+00 -1.49693e-01
       C  3.71490e+00 -1.12311e+01 -7.87015e-02
       C  6.65019e+00 -1.11863e+01 -2.16307e-01
       C  4.47254e+00 -7.49119e+00 -4.46661e-02
       C  5.89539e+00 -7.56005e+00 -1.64547e-01
       C  3.66159e+00 -8.73834e+00 -6.01675e-02
       C  6.54659e+00 -8.76241e+00 -2.82769e-01
       C  4.46608e+00 -4.96348e+00 -1.73845e-01
       C  5.82039e+00 -4.98686e+00 -1.42584e-01
       C  3.67290e+00 -6.19819e+00 -1.27702e-01
       C  6.57156e+00 -6.29194e+00 -1.73057e-01
       C  4.50196e+00 -2.47288e+00 -1.27848e-01
       C  5.84046e+00 -2.55781e+00 -2.96937e-01
       C  3.79123e+00 -3.75200e+00 -2.85740e-01
       C  6.56799e+00 -3.77985e+00 -2.66473e-01
       C  8.80886e+00 -9.95947e+00 -1.08677e-01
       C  1.01514e+01 -9.95100e+00 -6.41245e-02
       C  7.97814e+00 -1.11754e+01  6.32975e-02
       C  1.08500e+01 -1.12252e+01 -9.13948e-02
       C  8.74420e+00 -7.44741e+00 -2.07930e-01
       C  1.02098e+01 -7.42293e+00 -1.51509e-01
       C  7.99278e+00 -8.69226e+00 -1.68293e-01
       C  1.08149e+01 -8.72375e+00 -2.56836e-01
       C  8.67301e+00 -4.97132e+00 -1.42458e-02
       C  1.01091e+01 -4.97186e+00 -1.63045e-01
       C  8.06154e+00 -6.29315e+00 -1.32889e-01
       C  1.08637e+01 -6.23314e+00 -1.90369e-01
       C  8.63999e+00 -2.45849e+00 -2.54206e-01
       C  1.01112e+01 -2.53830e+00 -2.34399e-01
       C  7.98835e+00 -3.79538e+00 -2.73669e-01
       C  1.08607e+01 -3.78317e+00 -1.17250e-02
       C  1.29749e+01 -9.86205e+00 -1.31636e-01
       C  1.44242e+01 -9.84636e+00 -2.00350e-01
       C  1.22950e+01 -1.11358e+01 -6.15532e-03
       C  1.51417e+01 -1.11044e+01 -2.20563e-01
       C  1.30848e+01 -7.46507e+00  3.89108e-02
       C  1.44350e+01 -7.37800e+00 -8.39526e-02
       C  1.22435e+01 -8.61170e+00 -1.82184e-01
       C  1.51387e+01 -8.71250e+00 -1.45255e-01
       C  1.29417e+01 -5.04177e+00 -1.18544e-01
       C  1.43763e+01 -4.96298e+00 -1.57346e-01
       C  1.22647e+01 -6.26334e+00 -9.31491e-02
       C  1.50946e+01 -6.27354e+00 -1.71944e-01
       C  1.30773e+01 -2.54221e+00 -1.00937e-01
       C  1.44313e+01 -2.47437e+00 -8.97326e-02
       C  1.22751e+01 -3.76046e+00 -9.38776e-02
       C  1.52136e+01 -3.73379e+00 -8.01808e-02
       C  1.35699e-01 -9.95947e+00 -1.43269e-01
       C  1.59373e+00 -9.98617e+00 -9.80818e-02
       C -6.84130e-01 -1.12340e+01 -1.92202e-01
       C  2.32111e+00 -1.12598e+01 -5.24224e-02
       C  1.75418e-01 -7.49894e+00  4.40764e-03
       C  1.53765e+00 -7.47824e+00 -1.01739e-01
       C -6.49866e-01 -8.67358e+00 -2.20507e-01
       C  2.24715e+00 -8.77228e+00 -2.94960e-02
       C  1.12209e-01 -5.02641e+00 -8.85526e-02
       C  1.60801e+00 -4.94770e+00 -6.38683e-02
       C -5.81940e-01 -6.28724e+00 -1.44419e-01
       C  2.28382e+00 -6.27496e+00  5.96240e-03
       C  8.59694e-02 -2.53864e+00  3.46067e-02
       C  1.49298e+00 -2.60751e+00  3.62857e-02
       C -5.84780e-01 -3.76411e+00 -9.29844e-02
       C  2.31184e+00 -3.73902e+00 -1.23011e-01
       C  4.37608e+00 -3.90946e-02 -2.97580e-02
       C  5.80621e+00 -1.00951e-01 -1.55517e-03
       C  3.73361e+00 -1.33826e+00 -1.16489e-02
       C  6.54386e+00 -1.33517e+00 -4.56032e-02
       C  4.40770e+00 -1.72971e+01 -1.59976e-02
       C  5.91296e+00 -1.73648e+01 -2.43647e-02
       C  3.68731e+00 -1.85974e+01 -1.77354e-01
       C  6.41240e+00 -1.85397e+01  1.74408e-01
       C  4.46237e+00 -1.48686e+01 -3.73742e-02
       C  5.86966e+00 -1.48995e+01  3.20651e-02
       C  3.68966e+00 -1.60971e+01 -8.77657e-02
       C  6.59779e+00 -1.60882e+01  9.37770e-02
       C  4.43850e+00 -1.24153e+01 -4.86219e-02
       C  5.83497e+00 -1.23415e+01 -1.37225e-01
       C  3.63287e+00 -1.36685e+01  5.75983e-04
       C  6.55611e+00 -1.37617e+01 -1.50188e-01
       C  8.73306e+00 -2.57676e-02 -8.04127e-02
       C  1.00730e+01  5.35218e-03 -6.18207e-02
       C  8.00527e+00 -1.27523e+00  2.45235e-03
       C  1.08834e+01 -1.34213e+00 -2.08847e-01
       C  8.63761e+00 -1.73584e+01  2.06789e-01
       C  1.02154e+01 -1.73784e+01  1.93843e-01
       C  7.99469e+00 -1.86571e+01  4.42170e-02
       C  1.08896e+01 -1.85298e+01 -9.18023e-02
       C  8.70578e+00 -1.48343e+01 -5.04080e-02
       C  1.01993e+01 -1.48729e+01 -8.63109e-02
       C  7.98148e+00 -1.61534e+01  1.71956e-01
       C  1.07999e+01 -1.61402e+01 -2.77570e-02
       C  8.74036e+00 -1.24413e+01  3.57034e-02
       C  1.02340e+01 -1.24605e+01 -1.50800e-02
       C  8.04645e+00 -1.36266e+01 -1.66914e-02
       C  1.08738e+01 -1.36455e+01 -1.49668e-02
       C  1.28332e+01 -1.15545e-02 -1.79087e-01
       C  1.43085e+01 -2.96317e-02 -6.93815e-03
       C  1.22664e+01 -1.23019e+00 -1.52952e-02
       C  1.51042e+01 -1.27302e+00 -9.18266e-02
       C  1.29939e+01 -1.74075e+01 -1.23308e-01
       C  1.44415e+01 -1.74128e+01 -4.34329e-02
       C  1.22748e+01 -1.85553e+01 -1.33136e-01
       C  1.51300e+01 -1.85730e+01  7.01796e-02
       C  1.29767e+01 -1.49414e+01 -2.42470e-01
       C  1.44367e+01 -1.49151e+01 -2.33486e-01
       C  1.22777e+01 -1.60901e+01 -1.18649e-01
       C  1.51711e+01 -1.61009e+01 -1.97406e-01
       C  1.30094e+01 -1.23814e+01 -1.85075e-02
       C  1.43807e+01 -1.23827e+01 -1.41235e-01
       C  1.23645e+01 -1.36767e+01 -6.62176e-02
       C  1.51141e+01 -1.37046e+01 -1.08147e-01
       C  1.65614e-01 -8.69965e-02  1.56003e-02
       C  1.50272e+00 -3.07858e-02 -2.97949e-02
       C -5.56021e-01 -1.29605e+00 -2.38336e-02
       C  2.31527e+00 -1.27700e+00 -2.89827e-02
       C  9.24295e-02 -1.73787e+01 -2.63679e-01
       C  1.56871e+00 -1.73124e+01 -1.69024e-01
       C -5.03155e-01 -1.85915e+01 -1.53469e-01
       C  2.29346e+00 -1.86752e+01 -1.28089e-01
       C  5.42696e-02 -1.49052e+01 -1.25108e-01
       C  1.53517e+00 -1.49123e+01 -1.24379e-01
       C -5.66073e-01 -1.61129e+01 -1.98487e-01
       C  2.29676e+00 -1.60904e+01 -1.74582e-01
       C  1.01850e-01 -1.24153e+01 -7.46363e-02
       C  1.59302e+00 -1.24308e+01  4.04551e-02
       C -6.59308e-01 -1.37135e+01 -8.74448e-02
       C  2.21466e+00 -1.35916e+01  5.50892e-02
       H  5.84989e+00 -1.02299e+01  5.72642e+00
       C  5.43556e+00 -9.49314e+00  4.97951e+00
       C  5.89356e+00 -8.07032e+00  5.14484e+00
       H  6.92574e+00 -7.72491e+00  5.37683e+00
       C  5.04702e+00 -7.16270e+00  4.69968e+00
       H  5.33306e+00 -6.17761e+00  4.94954e+00
       C  3.99539e+00 -7.41434e+00  3.85150e+00
       H  3.11093e+00 -6.63023e+00  3.62540e+00
       C  3.73041e+00 -8.74854e+00  3.52806e+00
       H  2.89136e+00 -9.11924e+00  2.87493e+00
       C  4.46519e+00 -9.81712e+00  4.09309e+00
       H  4.07785e+00 -1.09578e+01  3.80393e+00
140
# CELL(abcABC):   17.14040    19.79200    30.00000    90.00000    90.00000    90.00000  Step:         100  Bead:      11 positions{angstrom}  cell{angstrom}
       C  4.36673e+00 -9.95464e+00 -7.48087e-02
       C  5.75776e+00 -9.93019e+00  5.09078e-03
       C  3.75322e+00 -1.12467e+01 -1.16821e-01
       C  6.46789e+00 -1.11955e+01 -1.31049e-01
       C  4.41905e+00 -7.42930e+00 -4.12423e-02
       C  5.86047e+00 -7.50853e+00 -1.62763e-01
       C  3.71646e+00 -8.70022e+00 -3.28433e-02
       C  6.51932e+00 -8.68874e+00 -1.33688e-01
       C  4.46322e+00 -5.03876e+00  2.67766e-02
       C  5.83039e+00 -5.05410e+00 -2.08422e-01
       C  3.73173e+00 -6.15612e+00 -1.06301e-02
       C  6.52204e+00 -6.26079e+00 -1.74124e-01
       C  4.45280e+00 -2.49377e+00 -9.55362e-02
       C  5.85549e+00 -2.50911e+00 -7.01872e-02
       C  3.68662e+00 -3.76591e+00  3.27841e-02
       C  6.53635e+00 -3.81421e+00 -2.07572e-01
       C  8.69920e+00 -9.91532e+00 -1.17663e-01
       C  1.01146e+01 -9.87902e+00 -1.08993e-02
       C  7.94688e+00 -1.11148e+01 -1.05155e-01
       C  1.08184e+01 -1.11809e+01 -7.71815e-03
       C  8.65081e+00 -7.51047e+00 -2.02462e-01
       C  1.01683e+01 -7.42891e+00 -1.18893e-01
       C  7.95347e+00 -8.70580e+00 -1.60940e-01
       C  1.08431e+01 -8.65355e+00 -9.53177e-02
       C  8.72795e+00 -4.98618e+00 -2.11877e-01
       C  1.01534e+01 -4.99972e+00 -1.31505e-01
       C  7.98404e+00 -6.16186e+00 -3.14343e-01
       C  1.08049e+01 -6.23395e+00 -1.08967e-01
       C  8.68574e+00 -2.47882e+00 -2.32925e-02
       C  1.01737e+01 -2.48597e+00 -5.42704e-02
       C  7.96111e+00 -3.75114e+00 -2.29358e-01
       C  1.08839e+01 -3.70623e+00 -5.82334e-02
       C  1.29632e+01 -9.92990e+00 -1.94327e-01
       C  1.43700e+01 -9.92500e+00 -2.80223e-01
       C  1.22077e+01 -1.11792e+01 -2.21452e-01
       C  1.50482e+01 -1.11262e+01 -1.36676e-01
       C  1.29182e+01 -7.58946e+00 -3.30932e-01
       C  1.43757e+01 -7.43571e+00 -4.17002e-01
       C  1.22234e+01 -8.76158e+00 -2.68155e-01
       C  1.51622e+01 -8.76991e+00 -1.86063e-01
       C  1.30782e+01 -4.94888e+00 -1.43199e-01
       C  1.44409e+01 -5.08265e+00 -6.70530e-02
       C  1.22590e+01 -6.22317e+00 -1.89618e-01
       C  1.51234e+01 -6.26216e+00 -1.72649e-01
       C  1.30350e+01 -2.50342e+00 -2.94232e-02
       C  1.43983e+01 -2.46914e+00 -4.60666e-02
       C  1.22493e+01 -3.67985e+00 -1.28039e-01
       C  1.51787e+01 -3.69617e+00 -6.91015e-02
       C  1.32054e-01 -1.00384e+01 -5.61691e-02
       C  1.56883e+00 -9.92001e+00 -3.83950e-02
       C -5.61155e-01 -1.11569e+01  1.43402e-02
       C  2.29802e+00 -1.11664e+01 -1.73742e-01
       C  1.42875e-01 -7.48893e+00 -2.56060e-01
       C  1.55096e+00 -7.46871e+00 -2.75089e-01
       C -5.62480e-01 -8.79533e+00 -1.80175e-01
       C  2.22009e+00 -8.77845e+00 -1.78182e-01
       C  1.87967e-01 -4.94367e+00 -2.31144e-01
       C  1.56089e+00 -4.97990e+00 -2.24108e-01
       C -5.46293e-01 -6.25034e+00 -2.84578e-01
       C  2.27380e+00 -6.16107e+00 -9.89496e-02
       C  2.01274e-01 -2.57974e+00 -1.84259e-01
       C  1.57596e+00 -2.52268e+00 -6.72607e-02
       C -5.73741e-01 -3.83563e+00 -1.90178e-01
       C  2.24268e+00 -3.72989e+00 -1.66799e-01
       C  4.42505e+00 -8.14783e-02 -6.53442e-02
       C  5.80118e+00 -3.54008e-02 -1.93082e-01
       C  3.63212e+00 -1.39937e+00 -1.30290e-01
       C  6.58097e+00 -1.30053e+00 -1.64823e-01
       C  4.41330e+00 -1.74466e+01 -4.49788e-02
       C  5.88820e+00 -1.74422e+01  1.90629e-02
       C  3.74185e+00 -1.86678e+01 -1.17540e-02
       C  6.58115e+00 -1.86316e+01 -1.65370e-02
       C  4.49552e+00 -1.48827e+01 -7.37180e-02
       C  5.93116e+00 -1.49010e+01  8.38381e-02
       C  3.74842e+00 -1.61543e+01 -1.42656e-01
       C  6.52662e+00 -1.61744e+01  1.52358e-01
       C  4.40748e+00 -1.25103e+01 -1.60088e-02
       C  5.81926e+00 -1.24454e+01  1.28241e-02
       C  3.73009e+00 -1.37324e+01 -1.35787e-01
       C  6.51007e+00 -1.36714e+01  6.90041e-02
       C  8.74380e+00 -7.07972e-02  4.03396e-02
       C  1.01894e+01 -1.44292e-02 -1.63249e-02
       C  7.98235e+00 -1.19632e+00 -5.96494e-02
       C  1.09565e+01 -1.28632e+00 -1.75089e-02
       C  8.81876e+00 -1.74108e+01 -5.79173e-02
       C  1.01921e+01 -1.72896e+01 -4.98547e-02
       C  8.04417e+00 -1.85889e+01  9.27501e-02
       C  1.08922e+01 -1.86167e+01 -9.30358e-03
       C  8.64778e+00 -1.49707e+01  1.40544e-01
       C  1.01191e+01 -1.48748e+01  5.98987e-02
       C  8.05604e+00 -1.61559e+01  6.15096e-03
       C  1.08705e+01 -1.60938e+01 -1.77246e-01
       C  8.67470e+00 -1.24114e+01 -5.58567e-02
       C  1.00982e+01 -1.24581e+01 -6.12317e-02
       C  7.97818e+00 -1.35719e+01  9.79528e-02
       C  1.08793e+01 -1.36395e+01  8.12863e-02
       C  1.29772e+01  9.86282e-03 -1.29627e-01
       C  1.44041e+01 -7.51756e-02  5.25099e-02
       C  1.23185e+01 -1.21690e+00 -8.13502e-02
       C  1.51791e+01 -1.33104e+00  1.43420e-01
       C  1.30330e+01 -1.73538e+01  5.69571e-02
       C  1.44631e+01 -1.73431e+01 -1.55087e-01
       C  1.23271e+01 -1.85361e+01  4.42470e-02
       C  1.51531e+01 -1.85460e+01 -1.24210e-01
       C  1.30246e+01 -1.49241e+01 -4.82061e-03
       C  1.44527e+01 -1.49235e+01 -9.97113e-02
       C  1.22878e+01 -1.61264e+01  3.61942e-02
       C  1.51591e+01 -1.60998e+01 -1.53543e-01
       C  1.30001e+01 -1.23712e+01 -1.97712e-01
       C  1.44680e+01 -1.24015e+01 -1.69127e-02
       C  1.22853e+01 -1.36460e+01 -8.09956e-02
       C  1.51418e+01 -1.36186e+01 -1.38085e-01
       C  1.11971e-01 -4.92436e-02 -5.04482e-02
       C  1.64121e+00 -7.03130e-02 -3.07999e-02
       C -4.99113e-01 -1.28458e+00 -1.11580e-01
       C  2.27084e+00 -1.33591e+00 -4.79514e-02
       C  2.31491e-01 -1.73483e+01 -1.53797e-01
       C  1.59385e+00 -1.74363e+01  5.13215e-02
       C -5.14777e-01 -1.86302e+01 -1.45967e-01
       C  2.26107e+00 -1.86877e+01  1.74702e-02
       C  1.34724e-01 -1.48527e+01 -1.68705e-01
       C  1.62623e+00 -1.49552e+01 -1.36842e-01
       C -5.30121e-01 -1.60668e+01 -1.01762e-01
       C  2.33789e+00 -1.61969e+01 -1.39447e-01
       C  1.79187e-01 -1.24184e+01 -7.26921e-02
       C  1.55219e+00 -1.25100e+01 -1.40648e-01
       C -5.60344e-01 -1.36842e+01 -1.71819e-01
       C  2.32350e+00 -1.37100e+01 -1.26489e-01
       H  5.95572e+00 -1.02944e+01  5.31751e+00
       C  5.29736e+00 -9.48301e+00  5.02441e+00
       C  5.88028e+00 -8.23366e+00  5.04208e+00
       H  6.95652e+00 -7.94784e+00  5.39595e+00
       C  5.14575e+00 -7.15612e+00  4.53465e+00
       H  5.51330e+00 -6.18812e+00  4.66098e+00
       C  3.96686e+00 -7.39447e+00  3.94962e+00
       H  3.32809e+00 -6.33699e+00  3.84887e+00
       C  3.54190e+00 -8.67593e+00  3.68708e+00
       H  2.47866e+00 -8.66793e+00  3.14876e+00
       C  4.15335e+00 -9.69856e+00  4.23944e+00
       H  3.86001e+00 -1.07219e+01  4.12217e+00
