140
# CELL(abcABC):   17.14040    19.79200    30.00000    90.00000    90.00000    90.00000  Step:           0  Bead:      29 positions{angstrom}  cell{angstrom}
       C  4.36872e+00 -9.99126e+00 -7.86038e-02
       C  5.86594e+00 -9.99619e+00 -7.51100e-02
       C  3.76261e+00 -1.11485e+01 -5.47794e-02
       C  6.54997e+00 -1.11371e+01 -2.49893e-01
       C  4.44452e+00 -7.47222e+00 -4.72315e-02
       C  5.87432e+00 -7.48421e+00 -1.44056e-01
       C  3.73167e+00 -8.79037e+00 -2.59628e-02
       C  6.57047e+00 -8.77417e+00 -1.87091e-01
       C  4.40134e+00 -5.03009e+00 -1.97202e-01
       C  5.86275e+00 -5.08550e+00 -1.69810e-01
       C  3.71780e+00 -6.28458e+00 -6.21846e-02
       C  6.59271e+00 -6.24900e+00 -9.42963e-02
       C  4.45958e+00 -2.57117e+00 -8.44614e-02
       C  5.92583e+00 -2.53368e+00 -2.32868e-01
       C  3.68547e+00 -3.83908e+00 -3.07485e-01
       C  6.55676e+00 -3.76312e+00 -1.54465e-01
       C  8.71108e+00 -9.96755e+00 -8.95773e-02
       C  1.01776e+01 -9.96116e+00 -1.15155e-01
       C  7.96688e+00 -1.12035e+01  8.04099e-02
       C  1.09511e+01 -1.11778e+01 -6.56494e-02
       C  8.72125e+00 -7.53589e+00 -1.08182e-01
       C  1.02109e+01 -7.48851e+00 -1.47555e-01
       C  7.98832e+00 -8.76505e+00 -1.19224e-01
       C  1.08604e+01 -8.72888e+00 -1.83251e-01
       C  8.77417e+00 -4.98109e+00 -1.01033e-01
       C  1.02135e+01 -5.01385e+00 -1.76378e-01
       C  8.06214e+00 -6.23242e+00 -9.65630e-02
       C  1.08419e+01 -6.24970e+00 -2.11308e-01
       C  8.70310e+00 -2.57362e+00 -2.04262e-01
       C  1.01329e+01 -2.50800e+00 -2.67501e-01
       C  7.93047e+00 -3.81114e+00 -2.42964e-01
       C  1.08876e+01 -3.78567e+00 -2.51790e-02
       C  1.29413e+01 -9.93950e+00 -1.51600e-01
       C  1.44078e+01 -9.90901e+00 -1.80453e-01
       C  1.23193e+01 -1.11472e+01  3.72124e-02
       C  1.50918e+01 -1.11606e+01 -1.63695e-01
       C  1.30538e+01 -7.45410e+00 -1.20742e-02
       C  1.43771e+01 -7.48125e+00 -1.82082e-01
       C  1.22462e+01 -8.71132e+00 -1.49021e-01
       C  1.51151e+01 -8.61090e+00 -1.40500e-01
       C  1.29966e+01 -4.95304e+00 -1.49625e-01
       C  1.44929e+01 -5.05266e+00 -1.32674e-01
       C  1.23102e+01 -6.17936e+00 -1.58126e-01
       C  1.51478e+01 -6.23677e+00 -1.17423e-01
       C  1.30018e+01 -2.51926e+00  7.90060e-03
       C  1.44759e+01 -2.48891e+00 -5.18112e-02
       C  1.23046e+01 -3.74144e+00 -1.01468e-01
       C  1.51313e+01 -3.73992e+00 -3.25607e-02
       C  7.26909e-02 -9.93872e+00 -2.23031e-01
       C  1.51576e+00 -1.00316e+01 -6.18071e-02
       C -5.77359e-01 -1.11811e+01 -1.54046e-01
       C  2.29958e+00 -1.12743e+01 -4.25051e-02
       C  1.80371e-01 -7.44457e+00 -7.46453e-02
       C  1.55898e+00 -7.50373e+00 -1.28137e-01
       C -6.08513e-01 -8.78623e+00 -1.91200e-01
       C  2.21054e+00 -8.75712e+00 -8.10688e-02
       C  1.52107e-01 -5.00377e+00 -4.56565e-02
       C  1.57688e+00 -5.03426e+00 -4.39627e-02
       C -5.32822e-01 -6.27868e+00 -1.51094e-01
       C  2.34219e+00 -6.19825e+00  7.67304e-03
       C  1.41096e-01 -2.49289e+00  5.24057e-03
       C  1.55630e+00 -2.51133e+00  2.66017e-02
       C -6.08761e-01 -3.76294e+00 -7.46399e-02
       C  2.28365e+00 -3.70316e+00 -2.03143e-01
       C  4.45512e+00 -9.07974e-02 -9.87364e-02
       C  5.88919e+00 -7.25075e-02  9.96894e-04
       C  3.70890e+00 -1.24499e+00 -1.22514e-01
       C  6.58090e+00 -1.30141e+00 -8.82055e-02
       C  4.36805e+00 -1.73265e+01 -5.75466e-02
       C  5.83547e+00 -1.73989e+01 -8.67506e-02
       C  3.70942e+00 -1.85607e+01 -1.43467e-01
       C  6.61959e+00 -1.85914e+01  1.48008e-01
       C  4.44862e+00 -1.49323e+01 -4.82846e-03
       C  5.88360e+00 -1.49358e+01 -6.76497e-02
       C  3.64419e+00 -1.60986e+01  4.61252e-03
       C  6.58022e+00 -1.61523e+01  4.30092e-02
       C  4.40521e+00 -1.24538e+01 -1.10928e-01
       C  5.90313e+00 -1.23825e+01 -1.64133e-01
       C  3.76076e+00 -1.36385e+01 -5.73585e-02
       C  6.61066e+00 -1.36746e+01 -8.72166e-02
       C  8.73560e+00 -3.90657e-02 -9.06583e-03
       C  1.01761e+01 -6.30988e-02 -1.69430e-01
       C  8.01623e+00 -1.28183e+00 -1.58522e-02
       C  1.07655e+01 -1.29325e+00 -7.79723e-02
       C  8.67919e+00 -1.74128e+01  2.69424e-01
       C  1.00968e+01 -1.73163e+01  1.55541e-01
       C  7.93254e+00 -1.86626e+01  7.27293e-02
       C  1.07750e+01 -1.85917e+01  6.60460e-03
       C  8.72186e+00 -1.49061e+01  1.46341e-03
       C  1.01335e+01 -1.49039e+01 -4.51680e-02
       C  8.01488e+00 -1.60893e+01  3.89631e-02
       C  1.08757e+01 -1.60872e+01 -2.13563e-02
       C  8.77211e+00 -1.24239e+01  1.01713e-01
       C  1.01082e+01 -1.23818e+01 -3.31417e-02
       C  7.98737e+00 -1.36651e+01 -1.05907e-02
       C  1.09050e+01 -1.36784e+01  8.31322e-03
       C  1.29648e+01 -1.16719e-02 -1.74090e-01
       C  1.43859e+01  3.48003e-02  4.63104e-02
       C  1.23581e+01 -1.28947e+00  3.82863e-02
       C  1.50826e+01 -1.22778e+00 -3.21204e-02
       C  1.29927e+01 -1.74006e+01 -8.26013e-02
       C  1.44715e+01 -1.73583e+01 -1.09029e-02
       C  1.22320e+01 -1.85883e+01 -1.68019e-01
       C  1.50882e+01 -1.85987e+01  4.55229e-02
       C  1.29711e+01 -1.49206e+01 -2.14609e-01
       C  1.44012e+01 -1.48963e+01 -1.08321e-01
       C  1.22588e+01 -1.62104e+01 -1.79729e-01
       C  1.51427e+01 -1.62049e+01 -1.26874e-01
       C  1.30368e+01 -1.24040e+01  1.08279e-02
       C  1.44345e+01 -1.23934e+01 -1.17643e-01
       C  1.23429e+01 -1.36077e+01 -4.53464e-02
       C  1.50408e+01 -1.36326e+01 -7.95083e-02
       C  1.62174e-01 -3.12592e-02 -6.09870e-03
       C  1.61250e+00 -9.42285e-02  1.17283e-02
       C -6.39222e-01 -1.30089e+00  2.96076e-02
       C  2.30782e+00 -1.32110e+00 -3.01989e-02
       C  1.31359e-01 -1.73500e+01 -2.22365e-01
       C  1.52676e+00 -1.73705e+01 -2.00285e-01
       C -6.31711e-01 -1.86039e+01 -3.95564e-02
       C  2.24436e+00 -1.86476e+01 -1.91559e-01
       C  1.29465e-01 -1.49105e+01 -1.55190e-01
       C  1.56906e+00 -1.49277e+01 -1.49238e-01
       C -5.89035e-01 -1.62013e+01 -1.74800e-01
       C  2.25647e+00 -1.61112e+01 -1.72780e-01
       C  1.40203e-01 -1.24493e+01 -4.08193e-02
       C  1.51034e+00 -1.24569e+01  9.08595e-02
       C -6.70549e-01 -1.36628e+01 -7.02603e-02
       C  2.27216e+00 -1.37494e+01  1.12146e-01
       H  5.83022e+00 -1.02278e+01  5.76352e+00
       C  5.47947e+00 -9.41565e+00  5.06297e+00
       C  5.83157e+00 -8.07558e+00  5.14342e+00
       H  6.96068e+00 -8.02268e+00  5.57408e+00
       C  5.02927e+00 -7.09895e+00  4.65738e+00
       H  5.34989e+00 -6.16569e+00  5.03111e+00
       C  4.01496e+00 -7.40796e+00  3.90770e+00
       H  3.31785e+00 -6.61676e+00  3.60610e+00
       C  3.72905e+00 -8.74161e+00  3.49580e+00
       H  2.88244e+00 -8.92638e+00  2.68194e+00
       C  4.48074e+00 -9.80931e+00  4.06097e+00
       H  4.28120e+00 -1.08766e+01  3.53992e+00
140
# CELL(abcABC):   17.14040    19.79200    30.00000    90.00000    90.00000    90.00000  Step:         100  Bead:      29 positions{angstrom}  cell{angstrom}
       C  4.39220e+00 -1.00032e+01 -1.37572e-01
       C  5.83128e+00 -9.91563e+00 -3.14625e-02
       C  3.71734e+00 -1.11726e+01 -1.16536e-01
       C  6.47166e+00 -1.11876e+01 -1.10511e-01
       C  4.39966e+00 -7.44417e+00 -5.07495e-02
       C  5.77622e+00 -7.42386e+00 -1.19934e-01
       C  3.62065e+00 -8.75188e+00 -8.75520e-02
       C  6.57336e+00 -8.73999e+00 -9.77571e-02
       C  4.42795e+00 -5.01501e+00  8.03735e-02
       C  5.82422e+00 -5.02752e+00 -2.37958e-01
       C  3.67162e+00 -6.17089e+00 -2.98375e-02
       C  6.58036e+00 -6.24742e+00 -2.43433e-01
       C  4.52127e+00 -2.52634e+00  7.00556e-03
       C  5.89002e+00 -2.50493e+00 -7.12040e-03
       C  3.81560e+00 -3.77814e+00  1.72456e-02
       C  6.51521e+00 -3.71031e+00 -1.50575e-01
       C  8.72268e+00 -9.89164e+00 -7.70288e-02
       C  1.01337e+01 -9.84916e+00  1.80708e-02
       C  7.99089e+00 -1.12089e+01 -6.69463e-02
       C  1.09038e+01 -1.11122e+01  7.07521e-02
       C  8.64374e+00 -7.43367e+00 -2.77480e-01
       C  1.00939e+01 -7.41292e+00 -1.35231e-01
       C  7.93602e+00 -8.67656e+00 -7.02563e-02
       C  1.08417e+01 -8.60666e+00 -1.23864e-01
       C  8.64132e+00 -4.96026e+00 -7.83878e-02
       C  1.01620e+01 -4.90656e+00 -1.04508e-01
       C  8.03285e+00 -6.21638e+00 -2.04329e-01
       C  1.07683e+01 -6.14653e+00 -2.57247e-02
       C  8.70937e+00 -2.57054e+00 -1.09600e-01
       C  1.01058e+01 -2.46941e+00 -1.26774e-01
       C  7.94238e+00 -3.72659e+00 -1.13689e-01
       C  1.08969e+01 -3.68580e+00 -8.68556e-02
       C  1.29785e+01 -9.89341e+00 -1.84557e-01
       C  1.43689e+01 -9.96655e+00 -1.29458e-01
       C  1.22911e+01 -1.12334e+01 -2.40327e-01
       C  1.51543e+01 -1.12101e+01 -1.14581e-01
       C  1.29375e+01 -7.48171e+00 -3.11103e-01
       C  1.43808e+01 -7.44927e+00 -4.20303e-01
       C  1.22815e+01 -8.68350e+00 -2.52073e-01
       C  1.51090e+01 -8.70692e+00 -1.45801e-01
       C  1.29129e+01 -4.96863e+00 -1.33153e-01
       C  1.44233e+01 -5.02158e+00 -4.87279e-02
       C  1.21907e+01 -6.25149e+00 -1.57071e-01
       C  1.50725e+01 -6.28412e+00 -1.67879e-01
       C  1.31002e+01 -2.49265e+00  1.70371e-03
       C  1.44692e+01 -2.45896e+00  6.19244e-03
       C  1.22463e+01 -3.83743e+00 -1.71809e-01
       C  1.52132e+01 -3.81808e+00 -1.18207e-03
       C  1.37657e-01 -9.96523e+00 -1.67800e-02
       C  1.51420e+00 -9.95782e+00 -6.31739e-02
       C -5.56585e-01 -1.11750e+01 -8.59030e-02
       C  2.30470e+00 -1.12143e+01 -1.70593e-01
       C  1.11655e-01 -7.47643e+00 -3.04253e-01
       C  1.63439e+00 -7.47915e+00 -2.87243e-01
       C -6.05412e-01 -8.81500e+00 -2.08617e-01
       C  2.26027e+00 -8.69898e+00 -6.16632e-02
       C  7.92538e-02 -5.07651e+00 -2.33656e-01
       C  1.58701e+00 -4.95169e+00 -2.56740e-01
       C -5.98663e-01 -6.30212e+00 -3.15181e-01
       C  2.31134e+00 -6.21736e+00 -1.17955e-01
       C  1.12174e-01 -2.48508e+00 -2.40036e-01
       C  1.53720e+00 -2.59560e+00 -2.00457e-01
       C -5.66769e-01 -3.74993e+00 -2.05040e-01
       C  2.26206e+00 -3.77346e+00 -8.47912e-02
       C  4.33015e+00 -5.03904e-02 -6.60598e-02
       C  5.88103e+00 -1.08804e-01 -1.25285e-01
       C  3.73450e+00 -1.30881e+00 -6.26341e-02
       C  6.67078e+00 -1.34529e+00 -1.20422e-01
       C  4.41136e+00 -1.74112e+01 -1.08986e-01
       C  5.85716e+00 -1.74279e+01  9.29236e-02
       C  3.68221e+00 -1.86933e+01 -2.90405e-02
       C  6.56193e+00 -1.86251e+01 -4.61289e-02
       C  4.35022e+00 -1.48613e+01 -9.13486e-02
       C  5.83490e+00 -1.49281e+01  1.25444e-01
       C  3.74596e+00 -1.61075e+01 -1.96214e-01
       C  6.63395e+00 -1.61560e+01  6.83626e-02
       C  4.36331e+00 -1.24788e+01 -5.04752e-02
       C  5.87235e+00 -1.24893e+01  6.23492e-02
       C  3.70415e+00 -1.36933e+01 -2.09102e-01
       C  6.58494e+00 -1.37063e+01  1.10254e-01
       C  8.82765e+00 -1.16698e-02  5.53154e-02
       C  1.01701e+01 -8.42683e-02  1.74377e-02
       C  8.03599e+00 -1.27219e+00 -1.13375e-01
       C  1.08522e+01 -1.38217e+00  2.31311e-02
       C  8.71125e+00 -1.74245e+01 -7.79469e-02
       C  1.01239e+01 -1.73561e+01 -1.20923e-01
       C  8.03247e+00 -1.85622e+01  5.04803e-02
       C  1.09166e+01 -1.85726e+01  8.42663e-03
       C  8.76557e+00 -1.48861e+01  1.58418e-01
       C  1.01694e+01 -1.48682e+01  2.45485e-02
       C  7.98547e+00 -1.61380e+01 -4.76638e-02
       C  1.08369e+01 -1.61697e+01 -7.64432e-02
       C  8.61819e+00 -1.24020e+01 -4.83933e-02
       C  1.00908e+01 -1.23774e+01  1.03136e-01
       C  7.90909e+00 -1.36204e+01  9.95482e-02
       C  1.08854e+01 -1.36043e+01  4.43945e-02
       C  1.30432e+01 -3.10568e-03 -9.58396e-02
       C  1.45379e+01 -5.39912e-02 -1.80820e-02
       C  1.23516e+01 -1.27945e+00 -2.59802e-02
       C  1.51303e+01 -1.24310e+00  3.00323e-03
       C  1.30633e+01 -1.73581e+01  6.38396e-02
       C  1.44768e+01 -1.73802e+01 -2.37293e-01
       C  1.22776e+01 -1.86026e+01  3.68645e-02
       C  1.51471e+01 -1.86401e+01 -7.04062e-02
       C  1.29723e+01 -1.48406e+01 -1.82258e-03
       C  1.44188e+01 -1.49193e+01 -6.02622e-02
       C  1.22972e+01 -1.61790e+01 -2.64330e-02
       C  1.51051e+01 -1.61774e+01 -1.23539e-01
       C  1.29567e+01 -1.24563e+01 -1.50014e-01
       C  1.43628e+01 -1.24030e+01 -9.62023e-02
       C  1.23577e+01 -1.36719e+01 -1.09604e-01
       C  1.51026e+01 -1.37103e+01 -1.22233e-01
       C  1.44527e-01 -7.25969e-03 -4.50030e-02
       C  1.59079e+00 -4.29596e-02 -4.30283e-02
       C -5.81379e-01 -1.24318e+00 -9.78592e-02
       C  2.27638e+00 -1.29634e+00 -6.47779e-02
       C  1.96103e-01 -1.73893e+01 -2.12116e-01
       C  1.64725e+00 -1.73658e+01  8.73778e-02
       C -5.51013e-01 -1.86048e+01 -1.23364e-01
       C  2.33025e+00 -1.86753e+01  1.18015e-02
       C  1.31109e-01 -1.49721e+01 -2.35244e-01
       C  1.59215e+00 -1.49472e+01 -2.36933e-01
       C -5.62753e-01 -1.61887e+01 -1.22883e-01
       C  2.32076e+00 -1.62556e+01 -8.72517e-02
       C  1.07209e-01 -1.24932e+01 -1.22382e-01
       C  1.66207e+00 -1.24829e+01 -1.46861e-01
       C -5.94260e-01 -1.36412e+01 -2.91347e-01
       C  2.28388e+00 -1.37049e+01 -1.58794e-01
       H  5.85622e+00 -1.02956e+01  5.53854e+00
       C  5.34385e+00 -9.50342e+00  4.99890e+00
       C  5.84480e+00 -8.19050e+00  5.07085e+00
       H  6.82814e+00 -7.89215e+00  5.47183e+00
       C  5.13294e+00 -7.12844e+00  4.53813e+00
       H  5.63781e+00 -5.99052e+00  4.68178e+00
       C  3.96397e+00 -7.30280e+00  3.89767e+00
       H  3.29901e+00 -6.44720e+00  3.81253e+00
       C  3.40389e+00 -8.65835e+00  3.71477e+00
       H  2.52831e+00 -8.72400e+00  2.97008e+00
       C  4.13424e+00 -9.71229e+00  4.23997e+00
       H  3.74393e+00 -1.07036e+01  3.98000e+00
