140
# CELL(abcABC):   17.14040    19.79200    30.00000    90.00000    90.00000    90.00000  Step:           0  Bead:       9 positions{angstrom}  cell{angstrom}
       C  4.45553e+00 -1.00294e+01 -9.93155e-02
       C  5.82587e+00 -9.92093e+00 -1.68403e-01
       C  3.70081e+00 -1.12151e+01 -8.28593e-02
       C  6.62166e+00 -1.11749e+01 -2.21509e-01
       C  4.49558e+00 -7.53208e+00 -3.52341e-02
       C  5.90343e+00 -7.55346e+00 -1.70575e-01
       C  3.69079e+00 -8.78212e+00 -9.79986e-02
       C  6.56093e+00 -8.75698e+00 -2.47351e-01
       C  4.43229e+00 -4.98529e+00 -1.88680e-01
       C  5.80266e+00 -4.99172e+00 -1.80291e-01
       C  3.67336e+00 -6.19108e+00 -1.21689e-01
       C  6.56912e+00 -6.28550e+00 -1.57876e-01
       C  4.49228e+00 -2.49347e+00 -1.29248e-01
       C  5.90065e+00 -2.56144e+00 -2.50386e-01
       C  3.73682e+00 -3.80243e+00 -2.88767e-01
       C  6.56482e+00 -3.76403e+00 -2.88279e-01
       C  8.74500e+00 -9.97100e+00 -1.07711e-01
       C  1.01732e+01 -9.94661e+00 -2.20056e-02
       C  7.94878e+00 -1.11812e+01  6.65135e-02
       C  1.09019e+01 -1.12105e+01 -1.24995e-01
       C  8.70125e+00 -7.48331e+00 -2.15194e-01
       C  1.02209e+01 -7.41911e+00 -1.50525e-01
       C  7.96597e+00 -8.71547e+00 -1.83814e-01
       C  1.08486e+01 -8.72634e+00 -2.46855e-01
       C  8.68007e+00 -4.99950e+00 -3.32964e-02
       C  1.01296e+01 -4.95735e+00 -1.52933e-01
       C  8.04464e+00 -6.24712e+00 -1.61211e-01
       C  1.08892e+01 -6.18768e+00 -2.15572e-01
       C  8.65101e+00 -2.45788e+00 -2.31239e-01
       C  1.00684e+01 -2.53914e+00 -2.01835e-01
       C  7.92450e+00 -3.85441e+00 -2.54151e-01
       C  1.08722e+01 -3.73620e+00 -9.41867e-03
       C  1.29951e+01 -9.85057e+00 -1.28819e-01
       C  1.44155e+01 -9.85000e+00 -1.82501e-01
       C  1.22984e+01 -1.11314e+01 -2.32653e-02
       C  1.51517e+01 -1.11177e+01 -2.43385e-01
       C  1.30651e+01 -7.49170e+00  5.43253e-02
       C  1.44130e+01 -7.36866e+00 -5.61008e-02
       C  1.23031e+01 -8.58537e+00 -2.34638e-01
       C  1.51726e+01 -8.70400e+00 -1.43178e-01
       C  1.29415e+01 -5.05590e+00 -1.45219e-01
       C  1.43891e+01 -4.98614e+00 -1.03528e-01
       C  1.22438e+01 -6.22090e+00 -1.10313e-01
       C  1.50795e+01 -6.25410e+00 -1.49645e-01
       C  1.30756e+01 -2.53933e+00 -1.33582e-01
       C  1.44416e+01 -2.46353e+00 -1.27661e-01
       C  1.23080e+01 -3.74427e+00 -1.07733e-01
       C  1.51685e+01 -3.68910e+00 -6.82677e-02
       C  9.41507e-02 -9.92396e+00 -1.84468e-01
       C  1.55932e+00 -9.98293e+00 -3.19910e-02
       C -6.89697e-01 -1.12488e+01 -1.60740e-01
       C  2.31316e+00 -1.12848e+01 -6.19308e-02
       C  1.54856e-01 -7.45949e+00 -1.89102e-02
       C  1.55457e+00 -7.51924e+00 -6.46289e-02
       C -6.11414e-01 -8.69102e+00 -1.89406e-01
       C  2.25070e+00 -8.80133e+00  3.99225e-03
       C  1.52567e-01 -5.01972e+00 -6.60901e-02
       C  1.63212e+00 -4.90755e+00 -7.29553e-02
       C -6.00516e-01 -6.27505e+00 -1.20358e-01
       C  2.34213e+00 -6.29693e+00 -1.57061e-02
       C  1.30808e-01 -2.49733e+00  1.45825e-02
       C  1.54029e+00 -2.56585e+00  4.33895e-02
       C -6.04537e-01 -3.75238e+00 -1.51998e-01
       C  2.33000e+00 -3.74750e+00 -1.56817e-01
       C  4.38624e+00 -4.01932e-02 -4.75413e-02
       C  5.81845e+00 -9.70979e-02 -2.01328e-02
       C  3.76827e+00 -1.34911e+00 -1.36741e-02
       C  6.55582e+00 -1.33380e+00 -3.41251e-02
       C  4.42143e+00 -1.73553e+01 -3.05863e-02
       C  5.88965e+00 -1.73542e+01 -5.17372e-02
       C  3.68675e+00 -1.85818e+01 -1.59338e-01
       C  6.43952e+00 -1.85201e+01  1.21783e-01
       C  4.45491e+00 -1.48864e+01 -3.09561e-02
       C  5.85515e+00 -1.49380e+01 -1.56982e-02
       C  3.65537e+00 -1.60665e+01 -5.55233e-02
       C  6.60656e+00 -1.61084e+01  9.07962e-02
       C  4.45491e+00 -1.24610e+01 -3.88127e-02
       C  5.87881e+00 -1.24009e+01 -1.82920e-01
       C  3.64865e+00 -1.36507e+01  2.30261e-02
       C  6.58428e+00 -1.37616e+01 -1.19306e-01
       C  8.71891e+00 -2.80761e-02 -2.76490e-02
       C  1.00929e+01 -1.78665e-02 -9.40452e-02
       C  8.00256e+00 -1.32203e+00  7.62769e-03
       C  1.08751e+01 -1.35073e+00 -1.75094e-01
       C  8.68339e+00 -1.73466e+01  2.09384e-01
       C  1.01762e+01 -1.73642e+01  1.86133e-01
       C  7.97731e+00 -1.86645e+01  6.14672e-02
       C  1.08427e+01 -1.85285e+01 -9.27356e-02
       C  8.68242e+00 -1.48783e+01 -1.94781e-02
       C  1.02182e+01 -1.48713e+01 -4.47578e-02
       C  7.98799e+00 -1.61337e+01  1.21402e-01
       C  1.07991e+01 -1.61724e+01 -3.57748e-02
       C  8.72004e+00 -1.24650e+01  6.53428e-02
       C  1.02120e+01 -1.24716e+01 -2.24844e-02
       C  8.02176e+00 -1.36854e+01 -5.05795e-02
       C  1.08345e+01 -1.36439e+01  2.94346e-02
       C  1.28705e+01 -2.62972e-02 -1.92135e-01
       C  1.43050e+01 -1.57529e-02 -1.31229e-03
       C  1.22831e+01 -1.22944e+00 -1.33168e-02
       C  1.50653e+01 -1.20589e+00 -7.02888e-02
       C  1.29764e+01 -1.74135e+01 -1.27057e-01
       C  1.45128e+01 -1.73793e+01 -7.62547e-02
       C  1.22276e+01 -1.85367e+01 -1.74627e-01
       C  1.51632e+01 -1.85917e+01  6.19402e-02
       C  1.29910e+01 -1.49320e+01 -1.98135e-01
       C  1.44141e+01 -1.49289e+01 -2.09265e-01
       C  1.22905e+01 -1.60879e+01 -9.68901e-02
       C  1.51327e+01 -1.61369e+01 -2.11361e-01
       C  1.30097e+01 -1.23437e+01  5.20186e-02
       C  1.43716e+01 -1.24317e+01 -1.46805e-01
       C  1.23638e+01 -1.36678e+01 -4.97557e-02
       C  1.51532e+01 -1.36876e+01 -5.54956e-02
       C  1.54314e-01 -5.18737e-02  1.87339e-02
       C  1.45969e+00 -6.69467e-02 -6.57841e-02
       C -5.77180e-01 -1.29410e+00 -1.70431e-02
       C  2.27027e+00 -1.28482e+00 -4.44254e-02
       C  1.22664e-01 -1.73984e+01 -2.95316e-01
       C  1.55017e+00 -1.73170e+01 -1.40994e-01
       C -5.03335e-01 -1.85431e+01 -1.78597e-01
       C  2.29857e+00 -1.86704e+01 -1.46818e-01
       C  7.15641e-02 -1.49249e+01 -1.37428e-01
       C  1.55061e+00 -1.49572e+01 -1.13697e-01
       C -5.59583e-01 -1.61421e+01 -1.95804e-01
       C  2.28370e+00 -1.61197e+01 -2.00742e-01
       C  1.29228e-01 -1.24155e+01 -1.09043e-01
       C  1.58675e+00 -1.24625e+01  3.04669e-02
       C -6.33739e-01 -1.37773e+01 -1.12628e-01
       C  2.26126e+00 -1.36994e+01  5.96984e-02
       H  6.04939e+00 -1.02037e+01  5.65912e+00
       C  5.47534e+00 -9.47118e+00  5.00164e+00
       C  5.83853e+00 -8.07656e+00  5.13387e+00
       H  6.91452e+00 -7.74095e+00  5.36260e+00
       C  5.05536e+00 -7.12317e+00  4.66824e+00
       H  5.41918e+00 -6.17079e+00  4.99614e+00
       C  4.02404e+00 -7.43023e+00  3.83730e+00
       H  3.08265e+00 -6.66856e+00  3.43458e+00
       C  3.71925e+00 -8.78245e+00  3.54158e+00
       H  2.86296e+00 -9.00601e+00  2.84076e+00
       C  4.47577e+00 -9.78604e+00  4.11014e+00
       H  4.16020e+00 -1.08416e+01  3.61145e+00
140
# CELL(abcABC):   17.14040    19.79200    30.00000    90.00000    90.00000    90.00000  Step:         100  Bead:       9 positions{angstrom}  cell{angstrom}
       C  4.33131e+00 -9.97749e+00 -5.89753e-02
       C  5.82021e+00 -9.93191e+00 -9.44782e-03
       C  3.75668e+00 -1.12102e+01 -1.13684e-01
       C  6.54366e+00 -1.12036e+01 -1.12916e-01
       C  4.42725e+00 -7.44468e+00 -7.17972e-02
       C  5.91330e+00 -7.47037e+00 -1.75103e-01
       C  3.69148e+00 -8.70490e+00 -5.92901e-02
       C  6.51425e+00 -8.67517e+00 -1.95797e-01
       C  4.44179e+00 -4.98261e+00  3.39037e-02
       C  5.81919e+00 -5.01808e+00 -2.17112e-01
       C  3.73122e+00 -6.16244e+00 -7.13052e-03
       C  6.57768e+00 -6.25965e+00 -1.61652e-01
       C  4.43855e+00 -2.45307e+00 -4.48174e-02
       C  5.87222e+00 -2.52992e+00 -7.94287e-02
       C  3.69750e+00 -3.76466e+00  4.30767e-02
       C  6.56498e+00 -3.78791e+00 -2.03860e-01
       C  8.76938e+00 -9.91939e+00 -9.82944e-02
       C  1.01865e+01 -9.84130e+00  8.16086e-02
       C  7.96219e+00 -1.11241e+01 -7.50024e-02
       C  1.08341e+01 -1.11908e+01  2.09146e-03
       C  8.67436e+00 -7.48507e+00 -2.41499e-01
       C  1.01381e+01 -7.39516e+00 -7.47008e-02
       C  7.94833e+00 -8.73718e+00 -1.29351e-01
       C  1.08790e+01 -8.65905e+00 -4.97955e-02
       C  8.71112e+00 -4.97119e+00 -1.58896e-01
       C  1.01021e+01 -4.97714e+00 -1.32600e-01
       C  7.99454e+00 -6.17106e+00 -2.64002e-01
       C  1.07897e+01 -6.20189e+00 -8.78837e-02
       C  8.71934e+00 -2.48282e+00 -5.76977e-02
       C  1.01223e+01 -2.50564e+00 -4.38641e-02
       C  7.98321e+00 -3.76538e+00 -2.74993e-01
       C  1.08243e+01 -3.71297e+00 -8.94780e-02
       C  1.29866e+01 -9.93133e+00 -1.51836e-01
       C  1.43579e+01 -9.91666e+00 -2.38826e-01
       C  1.22157e+01 -1.11929e+01 -1.79711e-01
       C  1.51122e+01 -1.11650e+01 -1.07198e-01
       C  1.29445e+01 -7.56825e+00 -3.06165e-01
       C  1.43907e+01 -7.44736e+00 -4.24741e-01
       C  1.22547e+01 -8.73402e+00 -2.58919e-01
       C  1.51711e+01 -8.74583e+00 -1.60881e-01
       C  1.31230e+01 -4.96815e+00 -1.18957e-01
       C  1.44406e+01 -5.06500e+00 -4.56127e-02
       C  1.22368e+01 -6.25718e+00 -2.17676e-01
       C  1.51406e+01 -6.25124e+00 -1.91219e-01
       C  1.30486e+01 -2.50208e+00 -9.13373e-03
       C  1.44359e+01 -2.45647e+00 -6.07159e-02
       C  1.22856e+01 -3.72958e+00 -1.26121e-01
       C  1.51576e+01 -3.72457e+00 -6.40438e-02
       C  1.16247e-01 -1.00450e+01 -5.15497e-02
       C  1.56913e+00 -9.94539e+00 -3.03538e-02
       C -5.54375e-01 -1.11754e+01  2.06818e-02
       C  2.28921e+00 -1.11171e+01 -1.39817e-01
       C  1.50876e-01 -7.45879e+00 -2.45423e-01
       C  1.60431e+00 -7.47510e+00 -2.98424e-01
       C -5.89700e-01 -8.83522e+00 -1.88308e-01
       C  2.21034e+00 -8.74114e+00 -1.50156e-01
       C  1.36819e-01 -4.97416e+00 -2.21532e-01
       C  1.55877e+00 -4.99396e+00 -2.46924e-01
       C -5.78312e-01 -6.23649e+00 -3.15165e-01
       C  2.28971e+00 -6.18094e+00 -1.24216e-01
       C  1.49409e-01 -2.56708e+00 -1.88513e-01
       C  1.63351e+00 -2.46468e+00 -8.16331e-02
       C -5.78749e-01 -3.84392e+00 -1.85146e-01
       C  2.24394e+00 -3.75532e+00 -1.23953e-01
       C  4.41627e+00 -7.28456e-02 -6.81571e-02
       C  5.80332e+00 -3.11672e-02 -1.50470e-01
       C  3.62970e+00 -1.37355e+00 -1.31156e-01
       C  6.57442e+00 -1.29311e+00 -1.77729e-01
       C  4.38246e+00 -1.74466e+01 -9.82772e-02
       C  5.92818e+00 -1.73955e+01  5.11839e-02
       C  3.73931e+00 -1.87121e+01  4.13554e-03
       C  6.60881e+00 -1.86696e+01 -4.81029e-02
       C  4.48459e+00 -1.48838e+01 -6.65130e-02
       C  5.92786e+00 -1.49263e+01  7.18483e-02
       C  3.77172e+00 -1.61567e+01 -1.58962e-01
       C  6.54449e+00 -1.61857e+01  1.65460e-01
       C  4.38871e+00 -1.25051e+01 -2.62489e-03
       C  5.78428e+00 -1.24677e+01  1.09931e-02
       C  3.71871e+00 -1.37513e+01 -1.05105e-01
       C  6.49171e+00 -1.36608e+01  1.05495e-01
       C  8.72132e+00 -6.83532e-02  2.28392e-02
       C  1.02146e+01 -1.55596e-02 -1.24227e-02
       C  8.00378e+00 -1.16704e+00 -9.68053e-02
       C  1.09773e+01 -1.26494e+00 -6.72288e-03
       C  8.79148e+00 -1.73725e+01 -7.55271e-02
       C  1.01564e+01 -1.73485e+01 -1.43639e-02
       C  8.01621e+00 -1.86080e+01  8.99669e-02
       C  1.08515e+01 -1.85780e+01  2.29176e-03
       C  8.67867e+00 -1.49624e+01  1.29693e-01
       C  1.01696e+01 -1.48637e+01  9.72245e-02
       C  8.05261e+00 -1.61515e+01  9.52895e-04
       C  1.08848e+01 -1.60855e+01 -1.67449e-01
       C  8.63983e+00 -1.24542e+01 -2.79654e-02
       C  1.00680e+01 -1.24248e+01 -2.65642e-02
       C  8.00690e+00 -1.36119e+01  4.08631e-02
       C  1.08877e+01 -1.36564e+01  6.49746e-02
       C  1.30081e+01 -3.76002e-02 -1.15121e-01
       C  1.44123e+01 -4.19395e-03  7.17464e-02
       C  1.23102e+01 -1.24041e+00 -8.63000e-02
       C  1.51555e+01 -1.31360e+00  1.43331e-01
       C  1.30302e+01 -1.74148e+01  5.07333e-02
       C  1.44873e+01 -1.73732e+01 -1.48313e-01
       C  1.23098e+01 -1.85742e+01 -1.20949e-02
       C  1.51590e+01 -1.85121e+01 -1.37518e-01
       C  1.30501e+01 -1.49545e+01  7.06187e-03
       C  1.44284e+01 -1.49043e+01 -8.75263e-02
       C  1.23022e+01 -1.61358e+01  8.29051e-02
       C  1.51838e+01 -1.61160e+01 -9.97931e-02
       C  1.30164e+01 -1.23864e+01 -2.10888e-01
       C  1.44841e+01 -1.24144e+01 -5.54582e-02
       C  1.22737e+01 -1.36514e+01 -1.14647e-01
       C  1.50710e+01 -1.36400e+01 -1.02859e-01
       C  1.37645e-01 -3.74907e-02 -6.91156e-02
       C  1.61127e+00 -2.93873e-02 -3.11694e-02
       C -4.97337e-01 -1.30849e+00 -1.36748e-01
       C  2.25321e+00 -1.34215e+00 -7.74465e-02
       C  2.08966e-01 -1.73481e+01 -1.57895e-01
       C  1.59802e+00 -1.74349e+01  7.89613e-02
       C -5.53921e-01 -1.86229e+01 -1.13138e-01
       C  2.25137e+00 -1.87129e+01  1.21630e-03
       C  1.67152e-01 -1.48835e+01 -1.75168e-01
       C  1.62525e+00 -1.49729e+01 -1.30345e-01
       C -5.43576e-01 -1.60781e+01 -9.70630e-02
       C  2.34655e+00 -1.61594e+01 -1.23272e-01
       C  1.23621e-01 -1.24331e+01 -7.04189e-02
       C  1.52039e+00 -1.25110e+01 -1.10139e-01
       C -5.74283e-01 -1.36617e+01 -1.21381e-01
       C  2.30383e+00 -1.37124e+01 -1.44243e-01
       H  5.86298e+00 -1.02144e+01  5.42127e+00
       C  5.33548e+00 -9.46429e+00  4.96043e+00
       C  5.87291e+00 -8.23707e+00  5.07045e+00
       H  6.93977e+00 -8.00036e+00  5.41470e+00
       C  5.14570e+00 -7.13681e+00  4.57011e+00
       H  5.56938e+00 -6.25034e+00  4.72474e+00
       C  3.96670e+00 -7.41587e+00  3.96695e+00
       H  3.34829e+00 -6.32292e+00  3.85357e+00
       C  3.53914e+00 -8.66821e+00  3.71024e+00
       H  2.56901e+00 -8.57203e+00  3.14900e+00
       C  4.15485e+00 -9.65239e+00  4.22638e+00
       H  3.92940e+00 -1.06240e+01  4.15404e+00
