140
# CELL(abcABC):   17.14040    19.79200    30.00000    90.00000    90.00000    90.00000  Step:           0  Bead:      16 positions{angstrom}  cell{angstrom}
       C  4.50404e+00 -9.96645e+00 -1.12151e-01
       C  5.88350e+00 -1.00086e+01 -1.37284e-01
       C  3.71494e+00 -1.12279e+01 -9.66226e-02
       C  6.62928e+00 -1.11624e+01 -1.98752e-01
       C  4.37333e+00 -7.49297e+00 -8.16613e-02
       C  5.90921e+00 -7.56283e+00 -2.01714e-01
       C  3.74561e+00 -8.74051e+00 -4.31237e-02
       C  6.59776e+00 -8.74587e+00 -2.65784e-01
       C  4.46423e+00 -5.00968e+00 -1.50138e-01
       C  5.87280e+00 -4.98790e+00 -1.64168e-01
       C  3.70603e+00 -6.19874e+00 -1.72762e-01
       C  6.62484e+00 -6.27657e+00 -1.91770e-01
       C  4.45063e+00 -2.54536e+00 -1.82087e-01
       C  5.82378e+00 -2.51761e+00 -2.91648e-01
       C  3.72807e+00 -3.75543e+00 -2.37831e-01
       C  6.60581e+00 -3.77690e+00 -2.08069e-01
       C  8.74245e+00 -9.98207e+00 -6.75433e-02
       C  1.01360e+01 -9.92955e+00 -9.73624e-02
       C  8.09229e+00 -1.11835e+01 -2.17147e-02
       C  1.08681e+01 -1.11925e+01 -1.18276e-01
       C  8.76165e+00 -7.47380e+00 -1.37705e-01
       C  1.01377e+01 -7.48240e+00 -1.08959e-01
       C  7.99090e+00 -8.69094e+00 -1.50627e-01
       C  1.08791e+01 -8.72233e+00 -2.82887e-01
       C  8.70373e+00 -4.95079e+00 -6.67323e-02
       C  1.00844e+01 -4.97405e+00 -2.07523e-01
       C  8.02110e+00 -6.29551e+00 -1.61841e-01
       C  1.08205e+01 -6.18408e+00 -2.21989e-01
       C  8.66092e+00 -2.49232e+00 -2.41318e-01
       C  1.01926e+01 -2.55169e+00 -2.82782e-01
       C  7.99472e+00 -3.78092e+00 -2.91346e-01
       C  1.08592e+01 -3.76150e+00 -2.30550e-02
       C  1.29545e+01 -9.83497e+00 -1.65172e-01
       C  1.44332e+01 -9.88163e+00 -1.97348e-01
       C  1.22556e+01 -1.11030e+01 -1.38714e-02
       C  1.51393e+01 -1.11391e+01 -1.74605e-01
       C  1.30503e+01 -7.41296e+00  3.79463e-03
       C  1.44978e+01 -7.34497e+00 -1.18339e-01
       C  1.22475e+01 -8.67061e+00 -1.04768e-01
       C  1.51480e+01 -8.69916e+00 -1.70650e-01
       C  1.29728e+01 -4.95398e+00 -1.03324e-01
       C  1.43407e+01 -4.93590e+00 -1.36336e-01
       C  1.22968e+01 -6.22485e+00 -1.14870e-01
       C  1.51676e+01 -6.27018e+00 -1.37286e-01
       C  1.30264e+01 -2.52307e+00 -2.56411e-02
       C  1.44580e+01 -2.49126e+00 -1.08007e-01
       C  1.23099e+01 -3.78945e+00 -1.34658e-01
       C  1.50894e+01 -3.76475e+00 -1.07059e-01
       C  1.64284e-01 -9.99443e+00 -2.08853e-01
       C  1.57934e+00 -1.00357e+01 -4.34993e-02
       C -6.14932e-01 -1.12516e+01 -2.04953e-01
       C  2.39636e+00 -1.12621e+01 -3.28877e-02
       C  1.85568e-01 -7.46517e+00 -3.78067e-02
       C  1.56949e+00 -7.57815e+00 -8.54812e-02
       C -6.27937e-01 -8.64226e+00 -1.76943e-01
       C  2.22065e+00 -8.76924e+00 -7.73986e-02
       C  1.16828e-01 -4.98593e+00 -1.12458e-01
       C  1.55641e+00 -4.98069e+00 -4.70741e-02
       C -5.91474e-01 -6.23692e+00 -1.94325e-01
       C  2.20748e+00 -6.28941e+00  1.91648e-03
       C  5.67646e-02 -2.58998e+00  6.95074e-03
       C  1.56353e+00 -2.59280e+00  7.39747e-02
       C -5.87113e-01 -3.76279e+00 -1.04952e-01
       C  2.26830e+00 -3.74499e+00 -1.33934e-01
       C  4.34142e+00 -3.93069e-02  2.00631e-02
       C  5.82976e+00 -3.39909e-02  3.98621e-02
       C  3.75095e+00 -1.36774e+00 -1.07758e-01
       C  6.53214e+00 -1.31184e+00 -5.99384e-02
       C  4.40962e+00 -1.72960e+01 -3.74083e-02
       C  5.87087e+00 -1.74052e+01  9.54990e-03
       C  3.72042e+00 -1.86597e+01 -1.16569e-01
       C  6.49384e+00 -1.85615e+01  1.84567e-01
       C  4.42826e+00 -1.48874e+01 -8.10571e-03
       C  5.88281e+00 -1.48645e+01  1.42523e-02
       C  3.70358e+00 -1.61804e+01 -3.52697e-02
       C  6.57718e+00 -1.60892e+01  2.58330e-02
       C  4.49091e+00 -1.24308e+01 -2.57392e-02
       C  5.81774e+00 -1.23662e+01 -1.11076e-01
       C  3.63611e+00 -1.37063e+01 -2.66010e-02
       C  6.58401e+00 -1.36847e+01 -1.76442e-01
       C  8.76518e+00  3.62059e-02 -3.13498e-02
       C  1.01095e+01 -9.70713e-03 -7.99922e-02
       C  8.07907e+00 -1.31358e+00  2.38140e-02
       C  1.08685e+01 -1.33232e+00 -1.43176e-01
       C  8.69016e+00 -1.73935e+01  2.12209e-01
       C  1.01873e+01 -1.74066e+01  2.22717e-01
       C  7.97969e+00 -1.86626e+01  5.09607e-03
       C  1.08401e+01 -1.85545e+01 -1.05529e-01
       C  8.71701e+00 -1.48542e+01  3.18810e-02
       C  1.01889e+01 -1.48693e+01 -8.93882e-02
       C  7.99496e+00 -1.61167e+01  1.59988e-01
       C  1.08553e+01 -1.60504e+01 -2.40441e-02
       C  8.74775e+00 -1.24075e+01  7.14122e-02
       C  1.01655e+01 -1.24071e+01 -5.37382e-02
       C  8.03432e+00 -1.36317e+01 -2.76246e-03
       C  1.09310e+01 -1.36179e+01 -6.12845e-03
       C  1.28838e+01 -1.41525e-02 -1.94536e-01
       C  1.42898e+01 -2.83728e-02 -1.36489e-02
       C  1.22313e+01 -1.28553e+00  1.72651e-02
       C  1.51388e+01 -1.21903e+00 -1.25611e-01
       C  1.30274e+01 -1.74170e+01 -9.54566e-02
       C  1.43973e+01 -1.73544e+01 -5.41606e-02
       C  1.22923e+01 -1.85450e+01 -1.42913e-01
       C  1.51003e+01 -1.85450e+01  7.93118e-02
       C  1.29749e+01 -1.49270e+01 -2.41539e-01
       C  1.44539e+01 -1.48801e+01 -9.65983e-02
       C  1.22754e+01 -1.60701e+01 -1.85141e-01
       C  1.52077e+01 -1.61237e+01 -2.35463e-01
       C  1.29761e+01 -1.24135e+01 -5.24041e-02
       C  1.44780e+01 -1.23376e+01 -1.11963e-01
       C  1.23366e+01 -1.36755e+01 -8.92104e-03
       C  1.51308e+01 -1.36974e+01 -8.49445e-02
       C  1.20146e-01 -4.11653e-02  5.02858e-02
       C  1.54377e+00 -2.15769e-02 -3.31265e-02
       C -5.58551e-01 -1.29340e+00 -2.45513e-02
       C  2.27209e+00 -1.34395e+00 -1.13822e-01
       C  1.80501e-01 -1.73158e+01 -2.50712e-01
       C  1.60995e+00 -1.73063e+01 -1.70262e-01
       C -5.40661e-01 -1.86345e+01 -9.53898e-02
       C  2.30328e+00 -1.86183e+01 -1.78641e-01
       C  4.32191e-02 -1.48621e+01 -1.34276e-01
       C  1.54433e+00 -1.48857e+01 -1.63097e-01
       C -5.67892e-01 -1.61404e+01 -2.52730e-01
       C  2.30173e+00 -1.60900e+01 -1.07084e-01
       C  6.23862e-02 -1.24458e+01 -6.41703e-02
       C  1.60825e+00 -1.24460e+01  2.92249e-02
       C -6.45117e-01 -1.36830e+01 -1.01850e-01
       C  2.23469e+00 -1.36293e+01  1.17658e-02
       H  5.82045e+00 -1.03907e+01  5.52270e+00
       C  5.42155e+00 -9.41672e+00  4.92471e+00
       C  5.85403e+00 -8.08346e+00  5.20359e+00
       H  6.77063e+00 -7.69255e+00  5.50399e+00
       C  5.02099e+00 -7.16332e+00  4.65022e+00
       H  5.23524e+00 -6.13817e+00  4.89712e+00
       C  3.99764e+00 -7.44560e+00  3.86591e+00
       H  3.26156e+00 -6.47679e+00  3.45705e+00
       C  3.76041e+00 -8.73915e+00  3.53484e+00
       H  2.88621e+00 -8.84937e+00  2.93202e+00
       C  4.45680e+00 -9.84386e+00  4.04658e+00
       H  4.33549e+00 -1.10210e+01  3.71945e+00
140
# CELL(abcABC):   17.14040    19.79200    30.00000    90.00000    90.00000    90.00000  Step:         100  Bead:      16 positions{angstrom}  cell{angstrom}
       C  4.40400e+00 -9.96836e+00 -5.04371e-02
       C  5.78737e+00 -9.96598e+00 -7.88197e-02
       C  3.71773e+00 -1.12487e+01 -1.46085e-01
       C  6.49445e+00 -1.12212e+01 -3.98298e-02
       C  4.44441e+00 -7.43027e+00  9.73323e-03
       C  5.86388e+00 -7.51271e+00 -1.34800e-01
       C  3.65131e+00 -8.73191e+00 -4.40030e-02
       C  6.53649e+00 -8.71609e+00 -1.22451e-01
       C  4.48516e+00 -5.03992e+00  2.03728e-02
       C  5.83342e+00 -5.04484e+00 -2.21215e-01
       C  3.74915e+00 -6.22526e+00 -5.88308e-02
       C  6.57848e+00 -6.25413e+00 -1.58106e-01
       C  4.38594e+00 -2.51560e+00 -1.30114e-01
       C  5.84040e+00 -2.55195e+00 -1.09974e-01
       C  3.69835e+00 -3.75097e+00  9.30206e-03
       C  6.55552e+00 -3.76640e+00 -1.40701e-01
       C  8.65686e+00 -9.87770e+00 -1.40257e-01
       C  1.01124e+01 -9.93381e+00 -2.18349e-02
       C  7.93712e+00 -1.10614e+01 -9.52249e-02
       C  1.08581e+01 -1.11189e+01  8.53987e-02
       C  8.75145e+00 -7.51803e+00 -3.10556e-01
       C  1.01279e+01 -7.58155e+00 -1.43091e-01
       C  7.95386e+00 -8.73618e+00 -1.34506e-01
       C  1.08301e+01 -8.68414e+00 -9.89927e-02
       C  8.67490e+00 -4.99209e+00 -1.59687e-01
       C  1.01749e+01 -5.00051e+00 -1.32617e-01
       C  8.00491e+00 -6.19050e+00 -3.04034e-01
       C  1.08446e+01 -6.24118e+00 -9.62956e-02
       C  8.69877e+00 -2.47639e+00 -1.42939e-02
       C  1.01490e+01 -2.43807e+00 -4.81009e-02
       C  8.01358e+00 -3.72341e+00 -2.42893e-01
       C  1.08830e+01 -3.65629e+00 -1.15657e-01
       C  1.29137e+01 -9.87208e+00 -1.42227e-01
       C  1.43167e+01 -9.94083e+00 -2.69433e-01
       C  1.22761e+01 -1.11798e+01 -1.94128e-01
       C  1.50744e+01 -1.11536e+01 -1.19579e-01
       C  1.29563e+01 -7.50419e+00 -3.73662e-01
       C  1.44743e+01 -7.50595e+00 -3.93891e-01
       C  1.22463e+01 -8.70884e+00 -2.17146e-01
       C  1.51383e+01 -8.73222e+00 -1.81427e-01
       C  1.31118e+01 -4.96158e+00 -1.03981e-01
       C  1.44084e+01 -5.09076e+00 -9.66975e-02
       C  1.22911e+01 -6.23798e+00 -1.83851e-01
       C  1.51136e+01 -6.30249e+00 -2.30134e-01
       C  1.30285e+01 -2.53500e+00 -9.37649e-02
       C  1.44333e+01 -2.51594e+00 -3.63067e-02
       C  1.23111e+01 -3.71973e+00 -1.31255e-01
       C  1.51346e+01 -3.72702e+00 -9.06846e-02
       C  1.12397e-01 -9.95666e+00 -5.43803e-02
       C  1.58012e+00 -1.00192e+01 -6.08257e-02
       C -5.91624e-01 -1.12393e+01 -5.53443e-02
       C  2.28799e+00 -1.12159e+01 -2.25761e-01
       C  1.05969e-01 -7.54178e+00 -2.27367e-01
       C  1.55591e+00 -7.47496e+00 -2.99333e-01
       C -5.73239e-01 -8.77923e+00 -1.37553e-01
       C  2.33510e+00 -8.74059e+00 -1.62545e-01
       C  2.64164e-01 -4.97890e+00 -2.24927e-01
       C  1.58020e+00 -5.01561e+00 -1.68735e-01
       C -5.98569e-01 -6.23360e+00 -3.04294e-01
       C  2.27486e+00 -6.14796e+00 -8.99912e-02
       C  1.51200e-01 -2.55509e+00 -1.60622e-01
       C  1.52078e+00 -2.54028e+00 -4.09711e-02
       C -5.33235e-01 -3.75182e+00 -2.30984e-01
       C  2.24431e+00 -3.78109e+00 -1.21990e-01
       C  4.42563e+00 -1.22032e-01 -7.66590e-02
       C  5.76029e+00  1.07781e-02 -1.78261e-01
       C  3.67810e+00 -1.33645e+00 -9.76348e-02
       C  6.57054e+00 -1.34740e+00 -1.83680e-01
       C  4.40712e+00 -1.74636e+01 -1.35424e-01
       C  5.85778e+00 -1.74296e+01  3.82578e-02
       C  3.78393e+00 -1.87052e+01 -4.26199e-04
       C  6.60443e+00 -1.85727e+01  6.97672e-03
       C  4.52481e+00 -1.49861e+01 -8.80015e-02
       C  5.79479e+00 -1.49034e+01  1.15992e-01
       C  3.74094e+00 -1.61405e+01 -1.40398e-01
       C  6.53546e+00 -1.61343e+01  1.66356e-01
       C  4.35237e+00 -1.25108e+01 -3.87019e-02
       C  5.81259e+00 -1.24172e+01  2.67639e-02
       C  3.73801e+00 -1.37684e+01 -1.77121e-01
       C  6.51115e+00 -1.36944e+01  1.23657e-01
       C  8.74912e+00 -7.69532e-02  6.66441e-02
       C  1.02149e+01 -2.31753e-02  5.83006e-03
       C  8.00488e+00 -1.20341e+00 -1.27576e-01
       C  1.08493e+01 -1.28597e+00 -9.15402e-03
       C  8.73367e+00 -1.73584e+01 -5.23772e-02
       C  1.02118e+01 -1.73330e+01 -1.13472e-01
       C  8.08476e+00 -1.86746e+01  1.74421e-02
       C  1.09383e+01 -1.86337e+01 -2.61231e-02
       C  8.63673e+00 -1.48709e+01  1.01723e-01
       C  1.01380e+01 -1.48661e+01  6.07035e-02
       C  8.03521e+00 -1.61305e+01  3.74776e-02
       C  1.08262e+01 -1.61204e+01 -1.04128e-01
       C  8.62951e+00 -1.24159e+01 -8.12631e-02
       C  1.00701e+01 -1.24090e+01 -1.72419e-02
       C  7.96831e+00 -1.35627e+01  7.22481e-02
       C  1.08681e+01 -1.36387e+01  8.44903e-02
       C  1.30291e+01  7.55324e-03 -9.17691e-02
       C  1.43868e+01 -4.26734e-02  9.39092e-03
       C  1.23402e+01 -1.25019e+00 -1.45791e-01
       C  1.51436e+01 -1.33287e+00  5.34178e-02
       C  1.30988e+01 -1.73884e+01  1.40759e-03
       C  1.44169e+01 -1.73380e+01 -2.12635e-01
       C  1.23675e+01 -1.85475e+01  1.39506e-02
       C  1.51512e+01 -1.86004e+01 -1.00655e-01
       C  1.29986e+01 -1.50001e+01  3.29257e-02
       C  1.43739e+01 -1.49874e+01 -1.25362e-01
       C  1.22667e+01 -1.61739e+01  3.96810e-02
       C  1.51793e+01 -1.60930e+01 -1.42161e-01
       C  1.29886e+01 -1.24173e+01 -1.94842e-01
       C  1.44392e+01 -1.24698e+01 -7.54982e-02
       C  1.23268e+01 -1.37026e+01 -7.43583e-02
       C  1.51154e+01 -1.36304e+01 -8.34325e-02
       C  1.40150e-01 -5.95363e-02 -1.76991e-02
       C  1.62446e+00 -1.27817e-01 -4.01405e-02
       C -5.56717e-01 -1.27037e+00 -6.28276e-02
       C  2.29181e+00 -1.29312e+00 -8.17119e-02
       C  1.62267e-01 -1.73752e+01 -1.59449e-01
       C  1.58154e+00 -1.74457e+01  3.33549e-02
       C -5.68409e-01 -1.85723e+01 -5.99316e-02
       C  2.27666e+00 -1.86104e+01 -3.40033e-02
       C  1.38582e-01 -1.48834e+01 -2.22346e-01
       C  1.61809e+00 -1.49492e+01 -1.57695e-01
       C -5.26737e-01 -1.60867e+01 -9.15662e-02
       C  2.33932e+00 -1.61818e+01 -1.40596e-01
       C  2.14910e-01 -1.23962e+01 -1.50903e-01
       C  1.59695e+00 -1.25032e+01 -1.27449e-01
       C -5.07320e-01 -1.36472e+01 -1.55077e-01
       C  2.32439e+00 -1.37298e+01 -1.26488e-01
       H  5.83769e+00 -1.03615e+01  5.32758e+00
       C  5.33482e+00 -9.46219e+00  4.97443e+00
       C  5.88173e+00 -8.19931e+00  4.98404e+00
       H  6.89812e+00 -7.97249e+00  5.47337e+00
       C  5.16420e+00 -7.13912e+00  4.46609e+00
       H  5.49131e+00 -6.11902e+00  4.62398e+00
       C  3.91309e+00 -7.34132e+00  3.95756e+00
       H  3.48658e+00 -6.41889e+00  3.84984e+00
       C  3.53427e+00 -8.61600e+00  3.71316e+00
       H  2.56185e+00 -8.74334e+00  3.15547e+00
       C  4.20830e+00 -9.72007e+00  4.23339e+00
       H  3.97190e+00 -1.08111e+01  4.20868e+00
