140
# CELL(abcABC):   17.14040    19.79200    30.00000    90.00000    90.00000    90.00000  Step:           0  Bead:       0 positions{angstrom}  cell{angstrom}
       C  4.41273e+00 -1.00315e+01 -1.14522e-01
       C  5.82666e+00 -1.00066e+01 -4.15651e-02
       C  3.72029e+00 -1.11523e+01 -2.06862e-02
       C  6.55708e+00 -1.11584e+01 -2.09190e-01
       C  4.48609e+00 -7.50142e+00 -1.76490e-02
       C  5.85826e+00 -7.52609e+00 -1.51526e-01
       C  3.72895e+00 -8.79900e+00 -9.02312e-02
       C  6.53921e+00 -8.76712e+00 -2.17439e-01
       C  4.40630e+00 -5.09574e+00 -2.03962e-01
       C  5.83593e+00 -5.08301e+00 -2.16609e-01
       C  3.70364e+00 -6.30167e+00 -1.09663e-01
       C  6.52421e+00 -6.20624e+00 -1.13717e-01
       C  4.43668e+00 -2.60353e+00 -7.76552e-02
       C  5.88665e+00 -2.52505e+00 -2.57520e-01
       C  3.67657e+00 -3.83328e+00 -3.09095e-01
       C  6.52712e+00 -3.77680e+00 -1.92368e-01
       C  8.75653e+00 -9.97315e+00 -1.11215e-01
       C  1.01157e+01 -9.98488e+00 -4.02358e-02
       C  7.94362e+00 -1.12020e+01  7.16680e-02
       C  1.08761e+01 -1.11957e+01 -3.98245e-02
       C  8.74294e+00 -7.54365e+00 -1.13092e-01
       C  1.02352e+01 -7.43741e+00 -1.29705e-01
       C  7.99292e+00 -8.77591e+00 -1.72933e-01
       C  1.09118e+01 -8.71087e+00 -2.22123e-01
       C  8.72341e+00 -5.00073e+00 -8.46761e-02
       C  1.01876e+01 -4.96821e+00 -2.33790e-01
       C  8.05628e+00 -6.27004e+00 -1.25100e-01
       C  1.08378e+01 -6.24130e+00 -2.37436e-01
       C  8.65821e+00 -2.53579e+00 -2.18070e-01
       C  1.01298e+01 -2.49067e+00 -2.52704e-01
       C  7.93646e+00 -3.79624e+00 -1.92064e-01
       C  1.08917e+01 -3.71097e+00 -4.48000e-02
       C  1.29402e+01 -9.92338e+00 -2.09810e-01
       C  1.44774e+01 -9.88110e+00 -1.57724e-01
       C  1.23423e+01 -1.11515e+01  4.81929e-02
       C  1.51093e+01 -1.11993e+01 -1.40881e-01
       C  1.30093e+01 -7.47313e+00  1.93908e-03
       C  1.43988e+01 -7.48033e+00 -1.89541e-01
       C  1.22824e+01 -8.73194e+00 -1.61437e-01
       C  1.51008e+01 -8.62608e+00 -1.39807e-01
       C  1.30080e+01 -4.99848e+00 -1.51005e-01
       C  1.44870e+01 -4.99328e+00 -1.79948e-01
       C  1.23328e+01 -6.18807e+00 -1.24635e-01
       C  1.51190e+01 -6.23921e+00 -1.33502e-01
       C  1.29752e+01 -2.51772e+00 -3.98693e-02
       C  1.44831e+01 -2.50993e+00 -3.97909e-02
       C  1.22852e+01 -3.81204e+00 -1.24197e-01
       C  1.51242e+01 -3.67215e+00 -7.24808e-02
       C  6.07337e-02 -9.95338e+00 -2.22562e-01
       C  1.50990e+00 -9.99243e+00 -5.13759e-03
       C -6.25934e-01 -1.11682e+01 -1.42205e-01
       C  2.25855e+00 -1.12418e+01 -1.26411e-02
       C  1.56069e-01 -7.47923e+00 -7.34751e-02
       C  1.53470e+00 -7.46554e+00 -1.02439e-01
       C -5.88793e-01 -8.77244e+00 -1.70353e-01
       C  2.29770e+00 -8.76665e+00 -1.06150e-01
       C  2.07468e-01 -5.00313e+00 -9.86558e-03
       C  1.60046e+00 -4.95121e+00 -7.31593e-02
       C -5.19985e-01 -6.28693e+00 -1.42793e-01
       C  2.35059e+00 -6.23639e+00  1.22717e-03
       C  1.29315e-01 -2.51330e+00  2.74563e-02
       C  1.51757e+00 -2.54501e+00 -1.64751e-02
       C -5.48459e-01 -3.78003e+00 -8.04998e-02
       C  2.26847e+00 -3.78003e+00 -1.62844e-01
       C  4.45240e+00 -5.80399e-02 -7.99762e-02
       C  5.83524e+00 -1.24810e-01  3.34369e-03
       C  3.73889e+00 -1.19522e+00 -1.16488e-01
       C  6.62783e+00 -1.36335e+00 -6.71277e-02
       C  4.40621e+00 -1.73643e+01 -5.64859e-02
       C  5.86796e+00 -1.73799e+01 -7.18202e-02
       C  3.70166e+00 -1.85549e+01 -1.17076e-01
       C  6.57167e+00 -1.85639e+01  1.75104e-01
       C  4.46420e+00 -1.48849e+01  6.65020e-03
       C  5.84748e+00 -1.49155e+01 -5.14483e-02
       C  3.64528e+00 -1.60826e+01 -2.86880e-02
       C  6.59188e+00 -1.61364e+01  8.07291e-02
       C  4.41170e+00 -1.24463e+01 -1.12525e-01
       C  5.90791e+00 -1.24439e+01 -1.89960e-01
       C  3.69947e+00 -1.37106e+01 -6.32262e-02
       C  6.60984e+00 -1.36191e+01 -1.38101e-01
       C  8.70547e+00 -4.10466e-02 -5.10263e-02
       C  1.01740e+01 -7.83360e-02 -1.10492e-01
       C  8.00760e+00 -1.31133e+00  4.00447e-02
       C  1.07701e+01 -1.33232e+00 -1.30416e-01
       C  8.73851e+00 -1.73091e+01  2.65990e-01
       C  1.01122e+01 -1.73295e+01  1.24085e-01
       C  7.96573e+00 -1.86624e+01  2.93461e-02
       C  1.07835e+01 -1.86085e+01 -5.67780e-02
       C  8.66482e+00 -1.49079e+01 -4.65739e-02
       C  1.02478e+01 -1.49555e+01 -2.25642e-02
       C  8.04815e+00 -1.60982e+01  1.55514e-03
       C  1.08782e+01 -1.61612e+01 -2.88913e-02
       C  8.74992e+00 -1.24504e+01  1.22144e-01
       C  1.01259e+01 -1.23594e+01 -1.95723e-02
       C  7.99926e+00 -1.36435e+01 -5.09311e-02
       C  1.09496e+01 -1.36676e+01 -7.47279e-02
       C  1.29834e+01 -7.19371e-03 -1.11924e-01
       C  1.43987e+01 -4.87285e-02  2.55651e-02
       C  1.23538e+01 -1.28499e+00  2.98569e-02
       C  1.50933e+01 -1.24878e+00 -3.01550e-02
       C  1.29815e+01 -1.73855e+01 -1.00367e-01
       C  1.44623e+01 -1.73643e+01 -2.75314e-02
       C  1.21786e+01 -1.85612e+01 -1.78303e-01
       C  1.51091e+01 -1.86024e+01  3.87157e-02
       C  1.29725e+01 -1.49532e+01 -1.60103e-01
       C  1.43950e+01 -1.49313e+01 -8.39018e-02
       C  1.22416e+01 -1.61951e+01 -1.61733e-01
       C  1.51079e+01 -1.61781e+01 -1.87708e-01
       C  1.29945e+01 -1.23758e+01  7.69886e-03
       C  1.43792e+01 -1.23919e+01 -7.98589e-02
       C  1.23335e+01 -1.35846e+01 -5.77798e-02
       C  1.50394e+01 -1.36504e+01 -6.17967e-02
       C  1.68984e-01 -8.85887e-02  2.28025e-02
       C  1.53573e+00 -3.44202e-02 -2.28531e-02
       C -6.25078e-01 -1.31347e+00  4.08384e-02
       C  2.27428e+00 -1.27401e+00 -4.47736e-02
       C  1.15320e-01 -1.73355e+01 -2.22908e-01
       C  1.55412e+00 -1.72954e+01 -1.15555e-01
       C -6.75764e-01 -1.85905e+01 -7.52631e-02
       C  2.25086e+00 -1.86161e+01 -1.92538e-01
       C  1.28898e-01 -1.48539e+01 -1.62139e-01
       C  1.57282e+00 -1.49075e+01 -9.88611e-02
       C -5.73508e-01 -1.61352e+01 -1.82970e-01
       C  2.32397e+00 -1.61213e+01 -1.52431e-01
       C  1.74653e-01 -1.24687e+01 -6.31873e-02
       C  1.48374e+00 -1.24256e+01  7.00630e-02
       C -6.61231e-01 -1.36756e+01 -1.07233e-01
       C  2.24413e+00 -1.37551e+01  3.32326e-02
       H  5.89832e+00 -1.02471e+01  5.70082e+00
       C  5.49722e+00 -9.45671e+00  5.05527e+00
       C  5.88561e+00 -8.12405e+00  5.11489e+00
       H  7.07545e+00 -7.95818e+00  5.47058e+00
       C  4.99271e+00 -7.08224e+00  4.60057e+00
       H  5.24083e+00 -6.02714e+00  5.06579e+00
       C  3.93917e+00 -7.40252e+00  3.89457e+00
       H  3.31603e+00 -6.64950e+00  3.51568e+00
       C  3.75108e+00 -8.75291e+00  3.48093e+00
       H  2.77618e+00 -8.94472e+00  2.82372e+00
       C  4.51997e+00 -9.84401e+00  4.05437e+00
       H  4.26853e+00 -1.09431e+01  3.68081e+00
140
# CELL(abcABC):   17.14040    19.79200    30.00000    90.00000    90.00000    90.00000  Step:         100  Bead:       0 positions{angstrom}  cell{angstrom}
       C  4.44053e+00 -9.97965e+00 -1.13663e-01
       C  5.80616e+00 -9.91381e+00 -5.21489e-02
       C  3.69514e+00 -1.12159e+01 -1.42833e-01
       C  6.53627e+00 -1.11963e+01 -6.17785e-02
       C  4.41215e+00 -7.44093e+00 -4.77934e-02
       C  5.83523e+00 -7.38155e+00 -9.59949e-02
       C  3.66901e+00 -8.68865e+00 -4.12650e-02
       C  6.52586e+00 -8.74626e+00 -9.26691e-02
       C  4.42147e+00 -4.99273e+00  5.35695e-02
       C  5.79316e+00 -5.00884e+00 -2.59723e-01
       C  3.69969e+00 -6.23855e+00 -7.39040e-02
       C  6.55821e+00 -6.22044e+00 -2.01542e-01
       C  4.48112e+00 -2.52262e+00  2.65778e-02
       C  5.89723e+00 -2.49466e+00 -9.21552e-02
       C  3.75717e+00 -3.77081e+00  3.81949e-02
       C  6.57984e+00 -3.70809e+00 -1.56960e-01
       C  8.74541e+00 -9.91814e+00 -1.24738e-01
       C  1.02041e+01 -9.84774e+00  5.28289e-02
       C  8.01605e+00 -1.11366e+01 -6.38057e-02
       C  1.08678e+01 -1.11116e+01  3.99518e-02
       C  8.61021e+00 -7.40532e+00 -2.77619e-01
       C  1.01257e+01 -7.39208e+00 -1.44116e-01
       C  7.92283e+00 -8.65880e+00 -7.55350e-02
       C  1.08718e+01 -8.62615e+00 -1.04909e-01
       C  8.70852e+00 -5.01543e+00 -5.42022e-02
       C  1.01155e+01 -4.89516e+00 -8.47366e-02
       C  8.00308e+00 -6.18845e+00 -2.12875e-01
       C  1.07978e+01 -6.17996e+00 -3.60846e-02
       C  8.75734e+00 -2.50547e+00 -1.05411e-01
       C  1.01685e+01 -2.52170e+00 -7.16298e-02
       C  7.90008e+00 -3.74170e+00 -1.37397e-01
       C  1.09331e+01 -3.70990e+00 -6.79853e-02
       C  1.29856e+01 -9.92908e+00 -1.88794e-01
       C  1.43892e+01 -9.97721e+00 -2.06867e-01
       C  1.22623e+01 -1.12111e+01 -2.49560e-01
       C  1.51627e+01 -1.11740e+01 -1.42597e-01
       C  1.29745e+01 -7.51067e+00 -2.97519e-01
       C  1.43874e+01 -7.48101e+00 -3.71198e-01
       C  1.22723e+01 -8.68632e+00 -2.48313e-01
       C  1.51034e+01 -8.72558e+00 -1.46381e-01
       C  1.29536e+01 -4.99265e+00 -1.53804e-01
       C  1.44098e+01 -4.99277e+00 -4.42601e-02
       C  1.22342e+01 -6.25480e+00 -2.02742e-01
       C  1.50756e+01 -6.24185e+00 -1.66243e-01
       C  1.31017e+01 -2.51775e+00 -1.93756e-02
       C  1.44823e+01 -2.51868e+00  3.80165e-02
       C  1.22298e+01 -3.82953e+00 -1.49843e-01
       C  1.51731e+01 -3.81097e+00 -1.64029e-02
       C  1.07839e-01 -9.98878e+00 -3.63455e-02
       C  1.49778e+00 -9.96093e+00 -4.71650e-02
       C -5.83359e-01 -1.11254e+01 -1.07170e-01
       C  2.30487e+00 -1.11713e+01 -1.68388e-01
       C  6.07573e-02 -7.47736e+00 -2.86561e-01
       C  1.70231e+00 -7.49558e+00 -3.07608e-01
       C -6.07155e-01 -8.82444e+00 -2.24616e-01
       C  2.26858e+00 -8.73706e+00 -8.55360e-02
       C  5.02940e-02 -5.06253e+00 -2.03370e-01
       C  1.57979e+00 -4.98182e+00 -2.56548e-01
       C -6.39519e-01 -6.32567e+00 -2.97316e-01
       C  2.35057e+00 -6.18743e+00 -8.87222e-02
       C  1.18510e-01 -2.54742e+00 -1.67188e-01
       C  1.64386e+00 -2.56573e+00 -1.67031e-01
       C -6.09901e-01 -3.77308e+00 -1.95720e-01
       C  2.29991e+00 -3.80982e+00 -2.02101e-02
       C  4.35278e+00 -7.40178e-02 -6.95676e-02
       C  5.88778e+00 -7.71467e-02 -8.21251e-02
       C  3.70285e+00 -1.32894e+00 -1.03344e-01
       C  6.67461e+00 -1.32303e+00 -1.62043e-01
       C  4.40236e+00 -1.74374e+01 -1.34039e-01
       C  5.84276e+00 -1.74229e+01  4.99285e-02
       C  3.66173e+00 -1.87202e+01 -4.22083e-02
       C  6.62100e+00 -1.86451e+01 -3.43514e-02
       C  4.37072e+00 -1.49099e+01 -8.20510e-02
       C  5.87252e+00 -1.49696e+01  9.90117e-02
       C  3.75258e+00 -1.60819e+01 -1.55977e-01
       C  6.66559e+00 -1.62034e+01  8.72502e-02
       C  4.34627e+00 -1.25004e+01 -5.81761e-02
       C  5.82885e+00 -1.25040e+01  6.71806e-02
       C  3.74955e+00 -1.37028e+01 -1.84985e-01
       C  6.51904e+00 -1.37283e+01  7.98224e-02
       C  8.76376e+00 -3.12315e-02  9.98442e-04
       C  1.01873e+01 -1.16929e-01  6.38352e-02
       C  8.00750e+00 -1.22949e+00 -9.64067e-02
       C  1.09000e+01 -1.36194e+00  1.66638e-02
       C  8.71716e+00 -1.74216e+01 -5.92975e-02
       C  1.01393e+01 -1.73262e+01 -7.03095e-02
       C  8.07126e+00 -1.86034e+01  5.90437e-02
       C  1.08667e+01 -1.85120e+01 -1.65498e-02
       C  8.71457e+00 -1.49593e+01  1.48479e-01
       C  1.01964e+01 -1.48778e+01  1.01454e-01
       C  8.02429e+00 -1.61389e+01 -8.66058e-03
       C  1.08885e+01 -1.60837e+01 -9.29506e-02
       C  8.61686e+00 -1.24213e+01 -6.01486e-02
       C  1.00783e+01 -1.23751e+01  8.17592e-02
       C  7.95404e+00 -1.36346e+01  4.75920e-02
       C  1.09002e+01 -1.35819e+01  8.96823e-02
       C  1.29672e+01 -7.59011e-02 -1.72097e-01
       C  1.44645e+01 -7.83223e-02  3.06349e-02
       C  1.23080e+01 -1.28070e+00 -7.63692e-02
       C  1.51360e+01 -1.21242e+00 -3.35026e-03
       C  1.30374e+01 -1.73593e+01  4.83034e-02
       C  1.44607e+01 -1.74341e+01 -2.38112e-01
       C  1.23142e+01 -1.85317e+01 -2.53307e-02
       C  1.50889e+01 -1.85823e+01 -3.49217e-02
       C  1.30162e+01 -1.48696e+01  2.09577e-02
       C  1.44983e+01 -1.49295e+01 -5.97226e-02
       C  1.22603e+01 -1.61418e+01  4.66561e-04
       C  1.51139e+01 -1.61944e+01 -1.37159e-01
       C  1.29927e+01 -1.24619e+01 -1.85730e-01
       C  1.43508e+01 -1.23617e+01 -8.13583e-02
       C  1.23297e+01 -1.36574e+01 -4.54506e-02
       C  1.51101e+01 -1.37005e+01 -1.23763e-01
       C  1.66703e-01 -1.62327e-02 -5.14805e-02
       C  1.60519e+00 -3.57728e-02 -1.28878e-02
       C -5.50004e-01 -1.24312e+00 -1.46986e-01
       C  2.25126e+00 -1.31129e+00 -6.10722e-02
       C  2.42556e-01 -1.74169e+01 -1.65607e-01
       C  1.62708e+00 -1.73821e+01  7.89933e-02
       C -5.83503e-01 -1.85893e+01 -9.68541e-02
       C  2.29946e+00 -1.86238e+01 -1.39727e-02
       C  1.99269e-01 -1.49833e+01 -1.85780e-01
       C  1.59081e+00 -1.49712e+01 -1.75039e-01
       C -5.90743e-01 -1.61656e+01 -1.24216e-01
       C  2.30459e+00 -1.62298e+01 -8.68541e-02
       C  1.33050e-01 -1.24722e+01 -8.21523e-02
       C  1.64631e+00 -1.25178e+01 -1.34282e-01
       C -5.94265e-01 -1.36492e+01 -2.32701e-01
       C  2.28003e+00 -1.36574e+01 -1.19397e-01
       H  5.94809e+00 -1.04472e+01  5.49226e+00
       C  5.33943e+00 -9.49849e+00  4.93820e+00
       C  5.84735e+00 -8.25855e+00  5.04697e+00
       H  6.83984e+00 -7.80019e+00  5.40728e+00
       C  5.15555e+00 -7.18090e+00  4.58780e+00
       H  5.71251e+00 -6.18467e+00  4.77103e+00
       C  4.00609e+00 -7.35745e+00  3.83787e+00
       H  3.24997e+00 -6.46353e+00  3.64638e+00
       C  3.42843e+00 -8.62611e+00  3.71700e+00
       H  2.56835e+00 -8.86644e+00  2.93898e+00
       C  4.15320e+00 -9.66149e+00  4.23685e+00
       H  3.77267e+00 -1.06968e+01  4.03440e+00
