140
# CELL(abcABC):   17.14040    19.79200    30.00000    90.00000    90.00000    90.00000  Step:           0  Bead:      16 forces{atomic_unit}  cell{angstrom}
       C -3.81943e-04  1.51998e-02  5.53511e-03
       C  3.77281e-03  1.56063e-02 -1.31794e-02
       C -3.22102e-03 -1.20297e-02  3.23777e-04
       C -3.26349e-03 -2.73057e-02  2.48315e-02
       C -8.23191e-03 -8.29616e-03 -7.58833e-03
       C -1.94786e-02  3.37347e-02  6.87639e-03
       C -3.33475e-03  2.97984e-03 -4.10001e-03
       C  5.49918e-03  5.76382e-03  8.86306e-03
       C -7.83573e-03 -2.36431e-03 -1.68026e-03
       C  2.38083e-02 -3.55356e-03 -5.23907e-03
       C  2.98426e-02 -1.76502e-02  4.47512e-03
       C  5.05584e-03 -3.12787e-03 -2.73972e-03
       C  1.69978e-03 -3.02827e-02 -1.73600e-02
       C -1.87190e-02  7.99249e-03  1.79959e-02
       C -6.56524e-03  3.93310e-02  2.01257e-02
       C -3.54773e-02 -2.36686e-02 -8.34062e-04
       C -2.08583e-02  1.00033e-02  7.28534e-03
       C  1.86937e-02 -1.10116e-02 -8.80017e-03
       C  1.36124e-02  9.75706e-03 -2.16000e-02
       C -3.18361e-02  8.03248e-03  8.59438e-03
       C  1.19347e-02  1.54476e-02 -1.42601e-04
       C -5.73129e-02 -4.55588e-02 -1.32791e-02
       C  2.39455e-02 -1.75036e-02  1.62678e-03
       C -3.00670e-03  3.76416e-02  1.61577e-02
       C  5.43675e-03 -2.40445e-02 -2.14836e-02
       C -9.17235e-03  1.26081e-02  1.42105e-02
       C -2.55412e-02  1.51752e-02  5.70887e-03
       C  4.35772e-02  1.97996e-03  1.11402e-02
       C  1.89435e-02 -3.51241e-02  1.52249e-03
       C -1.71257e-02 -2.89811e-02  1.82679e-02
       C  5.65417e-02  3.40240e-02  1.35532e-02
       C -7.54521e-03  4.49750e-03 -2.87914e-02
       C  5.76992e-02 -1.19472e-02  3.89878e-03
       C -2.05922e-02 -3.72440e-02  3.75595e-04
       C  5.77460e-04 -1.26406e-02 -1.17966e-02
       C -2.30346e-02  1.35063e-02  2.34894e-03
       C -5.43510e-02  2.69865e-02 -2.42956e-02
       C  2.08970e-02 -4.19697e-02  3.05634e-05
       C -2.27793e-05 -1.59981e-02  8.75721e-03
       C  2.11347e-03  1.82312e-03  7.34415e-05
       C  2.28493e-02 -2.04083e-02 -2.15450e-03
       C  2.64570e-03  1.07933e-02  2.05725e-03
       C -5.16609e-03 -2.38967e-03  5.00268e-03
       C  5.09714e-03  4.48398e-02  5.01053e-03
       C  5.50688e-04  2.96404e-02 -3.42565e-03
       C -3.24602e-02 -2.15680e-02  5.14554e-03
       C -2.48247e-02  1.13499e-02  1.07797e-02
       C  8.25068e-03 -1.59971e-02 -6.04390e-03
       C  1.31439e-02 -3.06810e-02  1.03818e-02
       C  4.22205e-03 -1.33466e-02 -9.22094e-03
       C  3.92033e-02  3.16196e-02  2.55931e-03
       C -2.45108e-02  6.08473e-02  1.35437e-03
       C -4.03778e-02 -3.77368e-02 -1.28687e-02
       C  1.99031e-02  1.33385e-02  9.62582e-03
       C  2.99321e-02  2.75063e-02  7.76132e-03
       C  3.17450e-02  2.36407e-02  2.39208e-04
       C  2.23180e-03 -5.45705e-03 -5.14419e-03
       C -2.04299e-02 -3.08837e-02 -1.08878e-03
       C  4.07361e-03  3.30106e-02  5.27884e-03
       C -2.75201e-02  4.96700e-03 -1.17111e-02
       C  4.81083e-03  6.66964e-03 -4.91697e-03
       C  2.36162e-02  8.65266e-03 -1.69465e-02
       C  1.60303e-03 -1.22397e-02  8.45784e-03
       C  6.85379e-03 -4.90485e-03  7.86118e-03
       C  7.53829e-03  2.34142e-02 -3.71254e-03
       C -7.76141e-03  2.74597e-02  4.32824e-03
       C -3.29307e-02 -1.37082e-03  3.34094e-04
       C  3.03627e-02  1.08545e-02 -8.26891e-04
       C  8.01845e-03 -3.35217e-02 -6.75858e-03
       C -2.72534e-02  6.36779e-02  1.15091e-02
       C  5.88817e-03 -2.04865e-02  1.08230e-02
       C  4.35604e-02 -7.83863e-02 -2.24752e-02
       C -3.67946e-02 -3.53098e-03 -2.15750e-03
       C  2.03095e-02  1.81299e-02 -3.35483e-03
       C  1.70841e-02  6.44696e-03 -6.09677e-03
       C -2.70250e-02 -2.58203e-02 -6.33974e-03
       C -1.71750e-02 -1.20242e-02 -4.39251e-03
       C  2.02865e-02 -4.21207e-02  2.34766e-03
       C  2.54318e-02  1.40719e-02  7.73989e-03
       C -1.67289e-02  2.64659e-02  7.13913e-03
       C -3.66889e-02 -2.66599e-02  4.02467e-03
       C  4.28305e-03 -1.21153e-02  5.90482e-05
       C -3.37482e-02  1.36251e-02 -1.55773e-02
       C  4.01651e-02  4.42890e-02  7.73480e-03
       C  1.26839e-02 -7.81000e-03 -1.88414e-02
       C -2.67717e-02  1.55718e-03 -1.94156e-02
       C  8.58975e-03  6.08773e-02  2.34826e-02
       C  1.58925e-02 -2.71379e-03  5.95163e-03
       C  3.44615e-02 -2.61237e-02  4.52388e-03
       C -1.93717e-02  2.88396e-03  4.75806e-03
       C  1.35129e-02 -1.17386e-03  8.75262e-04
       C -6.51402e-03 -1.13163e-02  5.82034e-03
       C -3.21860e-02 -5.70179e-04 -1.16953e-02
       C  1.94533e-02 -7.88367e-03  5.32854e-03
       C -7.40907e-03  2.06321e-02  1.20173e-05
       C -1.55183e-02  2.27317e-03 -3.69037e-03
       C -4.61250e-03 -1.72446e-02  1.94740e-02
       C  5.53622e-02  1.67795e-02 -1.00949e-02
       C -2.92354e-02 -7.82456e-03 -2.42138e-02
       C  1.20682e-02 -1.21515e-02  8.41730e-03
       C -8.36882e-03  4.81707e-02 -3.88933e-03
       C -3.32722e-02 -6.54655e-04 -6.64429e-03
       C  1.30556e-02 -3.56089e-02  6.04141e-03
       C  1.02704e-02 -2.41561e-02 -1.12927e-02
       C  1.48055e-02  2.28393e-02  1.39219e-02
       C -1.57435e-02 -3.17418e-02 -7.22351e-03
       C  2.83454e-02 -4.11166e-03  5.73432e-03
       C -9.04717e-03  2.93442e-02  9.32038e-03
       C  2.07821e-02  1.60564e-02 -9.04791e-03
       C -2.14722e-02 -3.31544e-02  8.43906e-03
       C -2.80922e-02 -1.73383e-02 -4.52235e-03
       C  1.40427e-02  1.78615e-02 -5.02854e-03
       C -2.95359e-02  5.90147e-03 -8.57528e-03
       C  3.30523e-02 -1.02042e-03 -7.90001e-03
       C -6.04731e-04  2.30989e-02 -4.73491e-04
       C -8.02405e-03  1.14404e-03  8.54925e-03
       C  4.32223e-03 -3.40662e-02  1.34194e-02
       C  1.35150e-02 -4.36213e-02 -9.45813e-03
       C  2.00046e-03 -1.06932e-02  6.37716e-03
       C -1.33198e-02  4.22438e-02  9.09877e-03
       C  3.28864e-02 -1.58294e-02 -1.35292e-03
       C -1.72188e-02  2.50812e-02  8.71752e-03
       C -2.51007e-02  2.39797e-02 -1.79125e-03
       C -1.38248e-03 -1.85115e-02  7.73190e-03
       C -2.19310e-02 -8.61103e-03 -1.93503e-04
       C -1.91703e-02 -3.03842e-02 -7.11743e-03
       C  3.11563e-02  3.59140e-02  4.51806e-04
       C  4.65352e-03  2.31133e-03 -1.38776e-02
       H  9.30343e-03  5.65304e-02 -6.06203e-03
       C  6.49370e-02 -7.68944e-02  7.32129e-02
       C -5.08654e-02 -6.70005e-02 -5.03734e-02
       H  3.24202e-02 -9.61573e-03  2.39396e-02
       C  3.42427e-02  5.27292e-02  3.62148e-02
       H -2.80966e-03  1.04740e-02 -2.16727e-03
       C -5.44934e-02  4.61803e-02 -3.41320e-02
       H  3.25525e-02 -5.05392e-02  1.57670e-02
       C -3.31416e-02 -3.04458e-02 -1.84943e-02
       H -6.72027e-03 -2.51444e-02 -1.08928e-02
       C -2.65428e-02  4.28758e-02 -4.27892e-02
       H  1.10001e-03  5.07658e-02  1.36593e-02
140
# CELL(abcABC):   17.14040    19.79200    30.00000    90.00000    90.00000    90.00000  Step:         100  Bead:      16 forces{atomic_unit}  cell{angstrom}
       C  3.10574e-03  1.21105e-02  3.99205e-03
       C  6.18357e-03 -3.46025e-02 -1.09501e-02
       C -2.03460e-02  2.19467e-02  8.73027e-04
       C  2.93856e-02  2.29753e-02  9.32202e-03
       C -3.94407e-03 -3.45956e-02 -6.12139e-03
       C -4.73053e-04  7.06202e-03  3.69707e-03
       C  4.08295e-02  8.85823e-03  1.37575e-03
       C -7.33106e-03 -2.56323e-03  5.12465e-03
       C -6.59733e-03  2.06121e-02 -1.18360e-02
       C  4.29917e-02  1.18067e-02  1.22748e-02
       C -9.50315e-03 -2.16787e-02  8.63299e-04
       C -1.96488e-02  2.04114e-02 -4.48659e-03
       C -3.87205e-02 -2.90451e-02  5.35157e-03
       C  1.27391e-02 -7.09101e-03 -1.16442e-02
       C -7.11219e-03  2.23587e-02 -6.13862e-03
       C -8.98567e-03  1.10854e-03  1.52073e-03
       C -1.07899e-02 -3.05458e-02  6.26450e-03
       C -1.54961e-02 -1.58846e-02 -7.10453e-03
       C -3.15041e-02  8.17719e-03 -2.70302e-05
       C -1.77201e-02 -3.35638e-02 -1.55705e-02
       C  1.76206e-02  8.96965e-03  1.43321e-02
       C -1.79115e-02  2.19625e-02 -4.23305e-03
       C  2.50786e-02  3.10748e-02 -9.89701e-03
       C -1.10585e-02 -2.65667e-02  4.80777e-04
       C  4.27983e-02  3.47919e-02 -6.13476e-03
       C -1.69633e-02 -2.55536e-02  2.47838e-04
       C -3.06309e-02 -5.27675e-02  7.19766e-03
       C -6.66549e-03  1.04286e-02 -7.85327e-03
       C -8.76431e-03  1.78924e-02 -8.71395e-03
       C  1.11544e-02 -3.31365e-02  4.35153e-04
       C  9.39668e-03 -6.99128e-03  8.45454e-03
       C -1.31871e-02 -1.31561e-02 -6.91172e-04
       C  2.93188e-03 -4.32506e-02 -1.11997e-02
       C  2.88453e-02  1.29643e-02  8.91412e-03
       C -3.10533e-03  2.86892e-02  1.85243e-02
       C  1.18384e-02 -1.44308e-03  4.87452e-03
       C  1.83386e-02  5.65921e-02  3.56166e-03
       C -2.42922e-02 -2.72320e-02  2.44642e-02
       C  8.36593e-03  3.88881e-03  3.16581e-03
       C -1.67223e-02 -2.64835e-02 -1.55600e-02
       C -2.29321e-02 -3.81244e-02 -1.68521e-03
       C  4.84036e-03  2.86810e-02 -8.69733e-03
       C  3.60788e-02  6.16601e-03  8.88764e-05
       C  5.80153e-03  2.83850e-02 -9.01940e-03
       C -5.34051e-02 -2.02185e-02 -1.00409e-02
       C  2.49374e-02 -4.47379e-02  2.27363e-03
       C  2.03532e-02  3.06817e-02  1.00026e-02
       C -2.55021e-02 -6.88830e-03 -4.35944e-03
       C  1.29174e-02  7.77241e-03 -3.22764e-03
       C  2.08409e-02 -1.38517e-02 -8.12421e-03
       C -6.89612e-03 -2.99307e-02 -6.21614e-03
       C -1.98889e-02 -3.56589e-02  1.37157e-02
       C  4.20641e-02 -4.90286e-02  1.38244e-03
       C -2.24411e-02  7.11020e-03  2.05952e-02
       C -6.79529e-03  6.62303e-02 -3.10067e-03
       C -3.11082e-02  3.25375e-02 -6.78710e-03
       C -4.92008e-03 -2.65827e-02 -4.17140e-03
       C -1.82371e-02  1.83201e-03  8.32659e-03
       C  9.34562e-03  2.78940e-02  1.02933e-02
       C -8.36666e-03 -4.18731e-02 -1.21466e-02
       C  2.77012e-03 -2.78024e-02  4.15901e-03
       C -7.87742e-03  1.64095e-02 -5.87487e-04
       C  1.02027e-02  4.07224e-02  5.62307e-03
       C  3.36185e-02  3.04226e-04 -1.43896e-03
       C  3.66754e-02 -2.66630e-02 -6.18738e-03
       C  2.40835e-02 -2.29150e-02  9.76607e-03
       C  1.39133e-02  1.70821e-02  2.54013e-03
       C -2.88983e-02  3.26408e-02  6.41116e-03
       C  3.08328e-02  2.84194e-02  1.12198e-02
       C -3.58786e-02  1.92921e-02 -4.77727e-03
       C -6.67942e-03  4.61386e-02 -6.01632e-03
       C  2.15752e-02 -2.33016e-02  1.51061e-03
       C  1.91513e-02 -1.17664e-02  1.28531e-03
       C -7.71441e-03 -1.33454e-02 -6.95974e-03
       C -1.93835e-02 -6.23882e-02  6.97182e-03
       C  5.18328e-03  2.39855e-02 -1.07965e-02
       C  5.64912e-02  6.66178e-03 -4.78798e-03
       C -4.27392e-02  2.90961e-02 -6.80590e-03
       C -2.61225e-02  1.26370e-02  1.01844e-02
       C  4.12849e-02  3.11913e-03  6.35552e-04
       C  1.44935e-02  6.08922e-03 -3.58828e-03
       C -9.84970e-03  5.50632e-03  1.10905e-03
       C  3.61280e-04 -4.76708e-02  6.69142e-03
       C -1.58438e-04  5.51728e-02 -7.90636e-03
       C  1.92665e-02  1.44563e-02  8.45151e-03
       C -1.73951e-02 -1.42818e-02  1.70686e-03
       C -3.36641e-02 -9.03479e-03 -1.36554e-02
       C -5.35307e-03 -1.62645e-02 -1.92192e-03
       C  2.46851e-02  4.98982e-02 -1.24677e-02
       C -1.63099e-02  8.96110e-03 -2.64587e-03
       C -2.59834e-02 -1.08202e-02  1.02372e-02
       C  4.52578e-03 -7.45684e-03  1.76594e-02
       C  6.57730e-02  6.28410e-03  1.00197e-02
       C  8.42862e-03  1.86319e-02 -1.40336e-03
       C -1.16162e-02 -6.88810e-02  9.92821e-04
       C -2.66204e-02 -1.20743e-02 -7.72918e-03
       C -4.45125e-03 -7.76813e-03  1.52750e-02
       C  4.16273e-03  2.83894e-02 -1.20291e-02
       C -7.79129e-04 -1.52652e-02  8.70388e-03
       C  3.40740e-02  1.67880e-02 -1.25542e-02
       C -2.50634e-02  1.58705e-02 -1.33454e-02
       C -3.69808e-02 -1.03826e-02  2.34763e-02
       C  8.39236e-03 -1.44955e-02 -7.02970e-03
       C  4.63764e-02 -3.13805e-02 -1.60041e-04
       C  2.56248e-04 -3.10908e-03 -5.28589e-03
       C -7.14118e-03  3.40233e-02  3.11423e-03
       C  2.59901e-02  2.96648e-02 -1.05943e-02
       C  3.50484e-02  6.69551e-03 -4.16997e-03
       C  2.34638e-02  5.81136e-03  7.96080e-03
       C -1.29927e-02 -1.68093e-04 -1.21521e-02
       C -2.76601e-02  1.60659e-03  9.20383e-03
       C  9.16867e-03 -2.22740e-02 -3.24178e-03
       C  1.54111e-02 -3.02201e-02 -5.87070e-03
       C -3.66589e-02  1.37080e-02 -2.76010e-04
       C -3.19996e-02  1.34788e-02  1.09645e-02
       C  5.07536e-03 -2.35165e-02 -1.20200e-04
       C -5.15564e-02  2.95941e-03  2.00372e-02
       C -3.18418e-03 -1.29438e-02 -2.17611e-02
       C  2.74879e-04  1.01017e-02 -1.96848e-03
       C  4.84663e-04 -8.38365e-04  4.83203e-03
       C -3.41274e-02  1.19922e-02  6.97293e-03
       C  6.67845e-03 -4.32057e-03  2.17237e-03
       C  1.90304e-02 -2.15295e-02 -1.07308e-02
       C  8.55478e-03  5.67185e-02  3.39841e-04
       C -1.04375e-02  1.45397e-02 -3.91253e-03
       C -1.63427e-02  4.52491e-02 -1.87539e-03
       C  1.35603e-02 -9.93411e-03  8.09268e-03
       C  1.14629e-02 -1.52123e-02 -4.80856e-03
       H  1.08609e-02  9.62708e-03  1.20093e-02
       C  2.10825e-02  3.47483e-04 -8.01566e-03
       C  1.90574e-02  7.31948e-03  1.34678e-02
       H -2.41816e-02 -9.67210e-03 -1.20661e-02
       C  3.18014e-02 -2.34595e-02  2.42037e-02
       H  7.08327e-03  2.55576e-03 -1.87532e-03
       C  4.33994e-02  3.80049e-04  1.47654e-02
       H -5.95479e-02  2.36044e-02 -2.49708e-02
       C -3.70085e-02 -2.88320e-02 -1.12727e-02
       H  1.79827e-02 -8.57024e-03  8.05845e-03
       C -1.28959e-02  8.80134e-03 -1.83654e-03
       H -1.76137e-02  1.78912e-02 -1.54787e-02
