140
# CELL(abcABC):   17.14040    19.79200    30.00000    90.00000    90.00000    90.00000  Step:           0  Bead:       7 positions{angstrom}  cell{angstrom}
       C  4.43084e+00 -9.97958e+00 -1.30964e-01
       C  5.82501e+00 -9.89901e+00 -1.45329e-01
       C  3.69565e+00 -1.11761e+01 -8.39311e-02
       C  6.62636e+00 -1.11502e+01 -2.15624e-01
       C  4.47243e+00 -7.52070e+00 -8.55466e-02
       C  5.89089e+00 -7.51693e+00 -1.08377e-01
       C  3.67290e+00 -8.81234e+00 -1.20010e-01
       C  6.56264e+00 -8.74975e+00 -2.25232e-01
       C  4.42741e+00 -5.01510e+00 -1.58042e-01
       C  5.83041e+00 -5.01110e+00 -2.07333e-01
       C  3.65819e+00 -6.23237e+00 -9.05416e-02
       C  6.53315e+00 -6.23212e+00 -1.54377e-01
       C  4.48338e+00 -2.50794e+00 -1.48624e-01
       C  5.87394e+00 -2.58817e+00 -2.75155e-01
       C  3.75401e+00 -3.84602e+00 -2.85162e-01
       C  6.57720e+00 -3.83632e+00 -2.76056e-01
       C  8.70139e+00 -9.96433e+00 -1.09760e-01
       C  1.01333e+01 -9.91230e+00 -4.84833e-02
       C  7.90157e+00 -1.12033e+01  7.58227e-02
       C  1.09046e+01 -1.11754e+01 -1.15130e-01
       C  8.73186e+00 -7.52590e+00 -2.21774e-01
       C  1.02016e+01 -7.43788e+00 -1.64664e-01
       C  7.95411e+00 -8.75192e+00 -1.62862e-01
       C  1.08556e+01 -8.71264e+00 -2.42188e-01
       C  8.63233e+00 -5.04129e+00 -2.76860e-02
       C  1.01444e+01 -4.96868e+00 -1.62958e-01
       C  8.10271e+00 -6.27996e+00 -1.57226e-01
       C  1.08660e+01 -6.17574e+00 -2.02653e-01
       C  8.67467e+00 -2.47575e+00 -1.64631e-01
       C  1.00789e+01 -2.56402e+00 -2.05643e-01
       C  7.88958e+00 -3.87388e+00 -3.00449e-01
       C  1.08888e+01 -3.73994e+00  6.85004e-03
       C  1.29368e+01 -9.86424e+00 -1.21525e-01
       C  1.44082e+01 -9.86636e+00 -1.51527e-01
       C  1.23247e+01 -1.11523e+01 -2.79724e-03
       C  1.51247e+01 -1.11737e+01 -2.01672e-01
       C  1.30394e+01 -7.48469e+00  4.57690e-02
       C  1.44469e+01 -7.45373e+00 -3.72107e-02
       C  1.22724e+01 -8.62277e+00 -2.44855e-01
       C  1.51254e+01 -8.69124e+00 -1.79241e-01
       C  1.29743e+01 -5.06238e+00 -1.62797e-01
       C  1.44154e+01 -5.05201e+00 -9.76554e-02
       C  1.22905e+01 -6.22802e+00 -1.62527e-01
       C  1.51194e+01 -6.25945e+00 -1.63740e-01
       C  1.30368e+01 -2.53306e+00 -1.59117e-01
       C  1.44564e+01 -2.44105e+00 -9.35922e-02
       C  1.23475e+01 -3.74489e+00 -9.38227e-02
       C  1.51180e+01 -3.71421e+00 -9.23351e-02
       C  7.59327e-02 -9.95554e+00 -2.53892e-01
       C  1.51855e+00 -9.94721e+00 -3.62428e-02
       C -6.56767e-01 -1.12273e+01 -1.74298e-01
       C  2.27866e+00 -1.13059e+01 -3.47443e-02
       C  1.43553e-01 -7.47242e+00 -2.28343e-02
       C  1.55262e+00 -7.48310e+00 -6.93841e-02
       C -5.45677e-01 -8.69899e+00 -2.17896e-01
       C  2.29244e+00 -8.78479e+00 -3.66182e-02
       C  1.43599e-01 -5.04978e+00 -1.95109e-02
       C  1.63214e+00 -4.90655e+00 -1.18545e-01
       C -5.39801e-01 -6.23782e+00 -1.07026e-01
       C  2.34684e+00 -6.26136e+00  9.71828e-04
       C  1.52478e-01 -2.42884e+00 -1.62663e-02
       C  1.55673e+00 -2.54183e+00  5.09393e-02
       C -6.38733e-01 -3.70185e+00 -1.29012e-01
       C  2.28872e+00 -3.74541e+00 -1.71022e-01
       C  4.41467e+00 -4.96106e-02 -5.48482e-02
       C  5.79148e+00 -1.24221e-01 -1.69914e-02
       C  3.78035e+00 -1.30329e+00 -6.03640e-02
       C  6.57713e+00 -1.34368e+00 -6.77361e-02
       C  4.49148e+00 -1.73316e+01 -1.88655e-02
       C  5.86114e+00 -1.73479e+01 -5.30441e-02
       C  3.70508e+00 -1.85478e+01 -1.71138e-01
       C  6.48423e+00 -1.85383e+01  1.30938e-01
       C  4.45834e+00 -1.48991e+01 -2.32964e-02
       C  5.82509e+00 -1.49645e+01 -3.13793e-02
       C  3.67597e+00 -1.60298e+01 -5.75215e-02
       C  6.57631e+00 -1.61095e+01  9.13067e-02
       C  4.45408e+00 -1.24197e+01 -1.58254e-02
       C  5.84096e+00 -1.24668e+01 -1.84393e-01
       C  3.63983e+00 -1.36672e+01 -4.97481e-02
       C  6.60969e+00 -1.36800e+01 -1.25123e-01
       C  8.75282e+00 -6.19628e-02 -5.08795e-02
       C  1.00981e+01 -6.83045e-03 -9.19419e-02
       C  8.00036e+00 -1.34462e+00  4.16448e-03
       C  1.08716e+01 -1.35251e+00 -1.43916e-01
       C  8.63754e+00 -1.73223e+01  1.81738e-01
       C  1.01768e+01 -1.73462e+01  1.89716e-01
       C  7.98293e+00 -1.86403e+01  5.89045e-02
       C  1.07695e+01 -1.85465e+01 -9.47118e-02
       C  8.73501e+00 -1.48209e+01  1.08850e-02
       C  1.02012e+01 -1.48524e+01 -1.79104e-02
       C  7.96942e+00 -1.61018e+01  5.62572e-02
       C  1.08267e+01 -1.61883e+01 -1.08697e-02
       C  8.75186e+00 -1.24077e+01  9.43141e-02
       C  1.02354e+01 -1.24822e+01 -2.48188e-02
       C  8.01791e+00 -1.37034e+01 -5.10529e-02
       C  1.08555e+01 -1.36216e+01  1.28874e-02
       C  1.28869e+01 -2.01462e-02 -1.67635e-01
       C  1.43126e+01 -1.75326e-02  2.05824e-02
       C  1.22628e+01 -1.22984e+00 -3.02284e-02
       C  1.50574e+01 -1.19641e+00 -7.62147e-02
       C  1.29895e+01 -1.74388e+01 -1.22839e-01
       C  1.44870e+01 -1.73717e+01 -3.98296e-02
       C  1.22128e+01 -1.84967e+01 -2.03506e-01
       C  1.51576e+01 -1.85363e+01  9.30972e-02
       C  1.29888e+01 -1.49567e+01 -2.02668e-01
       C  1.44103e+01 -1.49472e+01 -1.72366e-01
       C  1.23022e+01 -1.61225e+01 -8.13666e-02
       C  1.51269e+01 -1.61261e+01 -2.32205e-01
       C  1.30179e+01 -1.23755e+01  4.46579e-02
       C  1.43628e+01 -1.24056e+01 -1.58194e-01
       C  1.23292e+01 -1.36362e+01 -4.70880e-02
       C  1.51185e+01 -1.36879e+01 -6.08558e-02
       C  1.13788e-01 -3.15465e-02  5.31682e-02
       C  1.51029e+00 -6.53056e-02 -3.26409e-02
       C -6.22772e-01 -1.30159e+00 -1.34835e-02
       C  2.30664e+00 -1.29095e+00 -5.73129e-02
       C  1.27767e-01 -1.73343e+01 -2.74279e-01
       C  1.57906e+00 -1.73200e+01 -1.35266e-01
       C -5.39333e-01 -1.85646e+01 -8.41792e-02
       C  2.31405e+00 -1.86480e+01 -1.64297e-01
       C  3.99312e-02 -1.49161e+01 -1.60063e-01
       C  1.51628e+00 -1.49701e+01 -1.07406e-01
       C -5.12740e-01 -1.61654e+01 -1.55000e-01
       C  2.31598e+00 -1.60834e+01 -2.07191e-01
       C  1.54840e-01 -1.24005e+01 -1.21264e-01
       C  1.55629e+00 -1.24170e+01  1.98418e-02
       C -6.35922e-01 -1.37377e+01 -1.33664e-01
       C  2.31448e+00 -1.37456e+01  3.68062e-02
       H  6.08721e+00 -1.01855e+01  5.66381e+00
       C  5.50382e+00 -9.45954e+00  5.04701e+00
       C  5.83103e+00 -8.11118e+00  5.14560e+00
       H  6.87882e+00 -7.74270e+00  5.30783e+00
       C  5.06765e+00 -7.12303e+00  4.59975e+00
       H  5.36925e+00 -6.21331e+00  5.17974e+00
       C  4.02994e+00 -7.43595e+00  3.85581e+00
       H  3.13451e+00 -6.68033e+00  3.59597e+00
       C  3.71171e+00 -8.73038e+00  3.53178e+00
       H  2.71853e+00 -9.12379e+00  2.79749e+00
       C  4.46075e+00 -9.77237e+00  4.08923e+00
       H  4.13786e+00 -1.07059e+01  3.68991e+00
140
# CELL(abcABC):   17.14040    19.79200    30.00000    90.00000    90.00000    90.00000  Step:         100  Bead:       7 positions{angstrom}  cell{angstrom}
       C  4.34563e+00 -9.93616e+00 -9.19234e-02
       C  5.83990e+00 -9.92769e+00  2.01795e-02
       C  3.77440e+00 -1.12414e+01 -8.89395e-02
       C  6.57653e+00 -1.12314e+01 -1.54756e-01
       C  4.38271e+00 -7.43430e+00 -7.50116e-02
       C  5.89026e+00 -7.47931e+00 -1.94482e-01
       C  3.68259e+00 -8.70218e+00 -4.97008e-02
       C  6.50365e+00 -8.66939e+00 -2.12177e-01
       C  4.40656e+00 -4.96319e+00  6.04250e-02
       C  5.84106e+00 -4.96417e+00 -2.00301e-01
       C  3.72299e+00 -6.24460e+00  3.97088e-03
       C  6.59615e+00 -6.24805e+00 -1.77231e-01
       C  4.46970e+00 -2.46760e+00 -9.55347e-02
       C  5.88315e+00 -2.49780e+00 -9.70071e-02
       C  3.69553e+00 -3.74606e+00  7.00947e-02
       C  6.59976e+00 -3.81654e+00 -1.99406e-01
       C  8.75353e+00 -9.90178e+00 -9.56196e-02
       C  1.02077e+01 -9.81671e+00  4.44733e-02
       C  7.95029e+00 -1.11509e+01 -6.70042e-02
       C  1.08106e+01 -1.11630e+01  1.21940e-02
       C  8.65624e+00 -7.45665e+00 -2.20894e-01
       C  1.01591e+01 -7.41016e+00 -6.71283e-02
       C  7.95067e+00 -8.73066e+00 -7.99334e-02
       C  1.09180e+01 -8.68783e+00 -5.45184e-02
       C  8.70605e+00 -5.00421e+00 -1.12604e-01
       C  1.00897e+01 -4.94803e+00 -1.06194e-01
       C  7.99377e+00 -6.16698e+00 -2.46292e-01
       C  1.07666e+01 -6.20455e+00 -9.74369e-02
       C  8.72227e+00 -2.47975e+00 -7.28409e-02
       C  1.01125e+01 -2.53996e+00  6.32740e-05
       C  7.94525e+00 -3.75964e+00 -2.30160e-01
       C  1.08805e+01 -3.72801e+00 -5.78983e-02
       C  1.29780e+01 -9.93522e+00 -1.57113e-01
       C  1.43399e+01 -9.95283e+00 -2.05019e-01
       C  1.22618e+01 -1.12271e+01 -2.44680e-01
       C  1.51119e+01 -1.11805e+01 -9.34258e-02
       C  1.29592e+01 -7.56125e+00 -3.01536e-01
       C  1.43918e+01 -7.47103e+00 -4.07137e-01
       C  1.22014e+01 -8.67957e+00 -2.64430e-01
       C  1.51930e+01 -8.75161e+00 -2.16368e-01
       C  1.30791e+01 -4.97534e+00 -1.16097e-01
       C  1.44541e+01 -5.00597e+00 -6.93241e-02
       C  1.22000e+01 -6.28348e+00 -2.08594e-01
       C  1.51218e+01 -6.24416e+00 -1.52462e-01
       C  1.30646e+01 -2.41890e+00 -6.42195e-03
       C  1.44434e+01 -2.44570e+00 -2.71574e-02
       C  1.23150e+01 -3.75354e+00 -1.63450e-01
       C  1.51904e+01 -3.73360e+00 -5.38178e-02
       C  1.45675e-01 -1.00673e+01 -4.83123e-02
       C  1.55095e+00 -9.90031e+00 -1.60707e-02
       C -5.56328e-01 -1.11760e+01 -6.75998e-03
       C  2.26070e+00 -1.11667e+01 -1.32711e-01
       C  1.48267e-01 -7.41992e+00 -2.48067e-01
       C  1.60854e+00 -7.48533e+00 -2.77313e-01
       C -6.19749e-01 -8.84730e+00 -2.20756e-01
       C  2.26917e+00 -8.74458e+00 -1.08965e-01
       C  1.12933e-01 -4.98649e+00 -2.32618e-01
       C  1.60044e+00 -4.96428e+00 -2.15508e-01
       C -5.90009e-01 -6.26772e+00 -3.16902e-01
       C  2.29297e+00 -6.21022e+00 -8.53112e-02
       C  1.42881e-01 -2.51596e+00 -1.93195e-01
       C  1.65288e+00 -2.50292e+00 -1.59123e-01
       C -5.95127e-01 -3.84922e+00 -2.33521e-01
       C  2.26681e+00 -3.76741e+00 -6.38239e-02
       C  4.40931e+00 -6.55778e-02 -3.93465e-02
       C  5.77941e+00 -4.28846e-02 -1.12654e-01
       C  3.67944e+00 -1.34564e+00 -2.91750e-02
       C  6.55115e+00 -1.28627e+00 -1.63281e-01
       C  4.42149e+00 -1.74356e+01 -1.19966e-01
       C  5.93933e+00 -1.73984e+01  7.38722e-02
       C  3.69379e+00 -1.86590e+01  2.06249e-02
       C  6.62387e+00 -1.86528e+01 -5.64438e-02
       C  4.43868e+00 -1.49063e+01 -3.70865e-02
       C  5.87709e+00 -1.49614e+01  4.73601e-02
       C  3.71910e+00 -1.61405e+01 -1.18995e-01
       C  6.58532e+00 -1.61784e+01  1.11183e-01
       C  4.41350e+00 -1.24893e+01 -1.87812e-02
       C  5.74343e+00 -1.25210e+01  2.51131e-02
       C  3.71551e+00 -1.37093e+01 -1.05032e-01
       C  6.48329e+00 -1.36415e+01  1.04929e-01
       C  8.72929e+00 -6.03715e-02  1.90151e-03
       C  1.02080e+01 -2.73434e-04  1.77829e-02
       C  8.00660e+00 -1.17788e+00 -1.08706e-01
       C  1.09305e+01 -1.30386e+00  3.48212e-03
       C  8.76543e+00 -1.73954e+01 -8.86451e-02
       C  1.01495e+01 -1.73374e+01 -2.00962e-02
       C  7.98522e+00 -1.85613e+01  5.11882e-02
       C  1.08772e+01 -1.85461e+01  2.22474e-06
       C  8.70799e+00 -1.49659e+01  1.18780e-01
       C  1.01755e+01 -1.48695e+01  1.03632e-01
       C  8.00108e+00 -1.61776e+01  4.87079e-04
       C  1.09182e+01 -1.60858e+01 -1.01487e-01
       C  8.62500e+00 -1.23998e+01  1.29440e-02
       C  1.00798e+01 -1.24019e+01  2.67938e-02
       C  7.97144e+00 -1.36329e+01  9.58247e-02
       C  1.08820e+01 -1.36369e+01  7.16265e-02
       C  1.30363e+01 -8.98037e-02 -1.29922e-01
       C  1.44645e+01 -7.29568e-03  6.42102e-02
       C  1.23194e+01 -1.27986e+00 -1.19815e-01
       C  1.51320e+01 -1.29640e+00  1.17060e-01
       C  1.30575e+01 -1.74100e+01  5.49692e-02
       C  1.45005e+01 -1.73599e+01 -1.43151e-01
       C  1.23080e+01 -1.86001e+01 -2.49163e-02
       C  1.50800e+01 -1.84888e+01 -1.03600e-01
       C  1.30558e+01 -1.49074e+01 -3.44886e-02
       C  1.44702e+01 -1.48948e+01 -1.27018e-01
       C  1.22567e+01 -1.61804e+01  1.15929e-01
       C  1.51557e+01 -1.61222e+01 -1.24696e-01
       C  1.29723e+01 -1.23874e+01 -1.95485e-01
       C  1.44506e+01 -1.23579e+01 -6.92186e-02
       C  1.22697e+01 -1.36700e+01 -9.05828e-02
       C  1.51163e+01 -1.36271e+01 -1.08314e-01
       C  1.24873e-01  1.50257e-02 -1.28087e-02
       C  1.60767e+00  5.12225e-03 -2.66253e-02
       C -5.28426e-01 -1.32051e+00 -1.19184e-01
       C  2.23144e+00 -1.32108e+00 -1.00462e-01
       C  2.22593e-01 -1.73689e+01 -1.22561e-01
       C  1.60230e+00 -1.74014e+01  3.88515e-02
       C -5.59678e-01 -1.86377e+01 -1.39196e-01
       C  2.23339e+00 -1.86721e+01  6.13986e-03
       C  2.23414e-01 -1.48765e+01 -1.63105e-01
       C  1.63217e+00 -1.50009e+01 -1.02882e-01
       C -5.95149e-01 -1.61331e+01 -1.12859e-01
       C  2.33939e+00 -1.61750e+01 -9.90893e-02
       C  9.49881e-02 -1.24663e+01 -7.48147e-02
       C  1.56914e+00 -1.25478e+01 -1.48716e-01
       C -5.85519e-01 -1.36589e+01 -1.56690e-01
       C  2.25749e+00 -1.36513e+01 -1.95600e-01
       H  5.92178e+00 -1.03955e+01  5.39588e+00
       C  5.33628e+00 -9.46735e+00  4.97357e+00
       C  5.87667e+00 -8.21069e+00  5.13204e+00
       H  6.83024e+00 -7.99139e+00  5.42467e+00
       C  5.13199e+00 -7.15732e+00  4.58041e+00
       H  5.63114e+00 -6.28978e+00  4.77531e+00
       C  3.94481e+00 -7.38523e+00  3.96674e+00
       H  3.31674e+00 -6.40040e+00  3.83389e+00
       C  3.57308e+00 -8.67338e+00  3.69021e+00
       H  2.57724e+00 -8.50159e+00  3.27903e+00
       C  4.18784e+00 -9.65400e+00  4.22553e+00
       H  3.78608e+00 -1.06498e+01  4.11007e+00
