140
# CELL(abcABC):   17.14040    19.79200    30.00000    90.00000    90.00000    90.00000  Step:           0  Bead:       4 positions{angstrom}  cell{angstrom}
       C  4.38996e+00 -9.95087e+00 -9.97037e-02
       C  5.84217e+00 -9.95048e+00 -7.75739e-02
       C  3.71507e+00 -1.11717e+01 -8.19420e-02
       C  6.58042e+00 -1.11323e+01 -2.14601e-01
       C  4.44327e+00 -7.52515e+00 -7.47618e-02
       C  5.88008e+00 -7.49920e+00 -1.30878e-01
       C  3.71298e+00 -8.81615e+00 -1.69955e-01
       C  6.58336e+00 -8.68781e+00 -2.26099e-01
       C  4.40555e+00 -5.05816e+00 -2.44669e-01
       C  5.87099e+00 -4.99206e+00 -2.27387e-01
       C  3.67589e+00 -6.23312e+00 -1.03438e-01
       C  6.52895e+00 -6.21448e+00 -1.19774e-01
       C  4.43409e+00 -2.55681e+00 -1.20645e-01
       C  5.87550e+00 -2.54170e+00 -2.70984e-01
       C  3.74096e+00 -3.87186e+00 -2.69043e-01
       C  6.56228e+00 -3.83171e+00 -2.13092e-01
       C  8.72193e+00 -9.93980e+00 -9.92351e-02
       C  1.00998e+01 -9.94947e+00 -1.02451e-01
       C  7.93106e+00 -1.11993e+01  6.88819e-02
       C  1.09128e+01 -1.11842e+01 -1.10994e-01
       C  8.76742e+00 -7.49727e+00 -1.56582e-01
       C  1.02691e+01 -7.44308e+00 -1.34383e-01
       C  7.97707e+00 -8.72440e+00 -1.94357e-01
       C  1.08814e+01 -8.70550e+00 -2.47226e-01
       C  8.66085e+00 -5.02745e+00 -6.70756e-02
       C  1.01686e+01 -4.95877e+00 -1.91200e-01
       C  8.05386e+00 -6.23927e+00 -1.90941e-01
       C  1.08316e+01 -6.19768e+00 -1.51697e-01
       C  8.63671e+00 -2.46229e+00 -1.54883e-01
       C  1.01162e+01 -2.57660e+00 -1.87942e-01
       C  7.89183e+00 -3.84784e+00 -2.71765e-01
       C  1.08979e+01 -3.67707e+00 -1.66735e-02
       C  1.29463e+01 -9.89655e+00 -1.51543e-01
       C  1.44121e+01 -9.88307e+00 -1.45133e-01
       C  1.23485e+01 -1.11708e+01  1.67690e-02
       C  1.51026e+01 -1.11469e+01 -1.69207e-01
       C  1.30001e+01 -7.50304e+00  7.46250e-02
       C  1.44134e+01 -7.46036e+00 -2.94874e-02
       C  1.23206e+01 -8.63451e+00 -2.32408e-01
       C  1.51401e+01 -8.65863e+00 -1.53505e-01
       C  1.29946e+01 -5.03439e+00 -1.25475e-01
       C  1.44915e+01 -4.99882e+00 -1.23001e-01
       C  1.22851e+01 -6.19638e+00 -1.58669e-01
       C  1.51809e+01 -6.26245e+00 -1.42404e-01
       C  1.29867e+01 -2.50980e+00 -8.35095e-02
       C  1.44409e+01 -2.46857e+00 -9.88347e-02
       C  1.23091e+01 -3.75614e+00 -1.63262e-01
       C  1.51203e+01 -3.69502e+00 -6.32433e-02
       C  2.18060e-02 -9.93993e+00 -2.22027e-01
       C  1.45652e+00 -9.98960e+00 -5.64930e-02
       C -6.61946e-01 -1.11764e+01 -1.98941e-01
       C  2.31341e+00 -1.12355e+01  4.44839e-02
       C  1.50914e-01 -7.43417e+00 -6.00026e-02
       C  1.57533e+00 -7.49841e+00 -7.09196e-02
       C -5.83770e-01 -8.72487e+00 -2.27674e-01
       C  2.32988e+00 -8.83374e+00  2.54606e-03
       C  1.82537e-01 -5.03439e+00 -4.92484e-03
       C  1.51923e+00 -4.89672e+00 -3.15081e-02
       C -5.01277e-01 -6.26956e+00 -1.14945e-01
       C  2.40423e+00 -6.26565e+00  1.29474e-02
       C  1.29537e-01 -2.49474e+00  1.16002e-02
       C  1.55028e+00 -2.53787e+00  3.21787e-03
       C -6.26341e-01 -3.75081e+00 -1.03858e-01
       C  2.27363e+00 -3.77524e+00 -1.49996e-01
       C  4.46605e+00 -2.42129e-02 -5.93113e-02
       C  5.79811e+00 -1.49100e-01 -4.33180e-02
       C  3.77510e+00 -1.28404e+00 -9.88219e-02
       C  6.54369e+00 -1.31237e+00 -2.42667e-02
       C  4.48824e+00 -1.73564e+01 -3.32540e-02
       C  5.83027e+00 -1.73852e+01 -5.03959e-02
       C  3.73557e+00 -1.85123e+01 -1.19156e-01
       C  6.53343e+00 -1.85462e+01  1.46620e-01
       C  4.43490e+00 -1.49076e+01  5.64086e-03
       C  5.84910e+00 -1.49521e+01 -4.41627e-02
       C  3.63378e+00 -1.59881e+01 -7.56443e-02
       C  6.59040e+00 -1.60998e+01  8.94044e-02
       C  4.43151e+00 -1.24202e+01 -5.67556e-02
       C  5.86351e+00 -1.24224e+01 -2.04055e-01
       C  3.66267e+00 -1.37283e+01 -1.10877e-01
       C  6.60867e+00 -1.36259e+01 -1.10598e-01
       C  8.72903e+00 -6.33694e-02 -6.10579e-02
       C  1.01545e+01  1.00632e-02  1.01175e-02
       C  7.94915e+00 -1.33617e+00  3.85640e-02
       C  1.07753e+01 -1.34422e+00 -1.28207e-01
       C  8.69272e+00 -1.73166e+01  2.51742e-01
       C  1.01617e+01 -1.73562e+01  1.53951e-01
       C  7.95166e+00 -1.86607e+01  5.50137e-02
       C  1.07923e+01 -1.85924e+01 -8.24368e-02
       C  8.68414e+00 -1.48753e+01  3.10301e-02
       C  1.01855e+01 -1.48991e+01 -3.17967e-02
       C  8.05924e+00 -1.61128e+01  4.17535e-02
       C  1.08126e+01 -1.61679e+01 -2.54178e-02
       C  8.75774e+00 -1.24154e+01  7.09522e-02
       C  1.01951e+01 -1.24333e+01 -2.74759e-03
       C  8.04320e+00 -1.36805e+01 -2.19043e-02
       C  1.09096e+01 -1.36309e+01 -4.97552e-02
       C  1.29229e+01 -5.66958e-03 -1.53937e-01
       C  1.43327e+01 -1.58601e-02 -2.40426e-02
       C  1.22895e+01 -1.28139e+00 -1.36925e-02
       C  1.50520e+01 -1.24748e+00 -8.46379e-02
       C  1.29750e+01 -1.73757e+01 -1.30114e-01
       C  1.44414e+01 -1.73778e+01 -2.45474e-02
       C  1.21972e+01 -1.85375e+01 -1.50950e-01
       C  1.51132e+01 -1.85487e+01  2.51032e-02
       C  1.30012e+01 -1.49353e+01 -2.15508e-01
       C  1.44233e+01 -1.48747e+01 -1.84760e-01
       C  1.22935e+01 -1.61709e+01 -1.21795e-01
       C  1.51505e+01 -1.61689e+01 -2.34824e-01
       C  1.30046e+01 -1.23669e+01  6.95182e-02
       C  1.43732e+01 -1.23927e+01 -1.48859e-01
       C  1.23257e+01 -1.36590e+01 -3.57258e-02
       C  1.50892e+01 -1.36747e+01 -9.33634e-02
       C  7.70338e-02 -6.40514e-02  6.14487e-02
       C  1.51260e+00 -5.42780e-02 -4.63464e-02
       C -6.15218e-01 -1.28150e+00  2.45951e-02
       C  2.30608e+00 -1.29821e+00 -2.46147e-02
       C  1.29133e-01 -1.73601e+01 -2.54623e-01
       C  1.57027e+00 -1.73205e+01 -1.38738e-01
       C -6.14661e-01 -1.85399e+01 -9.15136e-02
       C  2.26114e+00 -1.86249e+01 -1.74335e-01
       C  8.12907e-02 -1.49393e+01 -1.43195e-01
       C  1.52218e+00 -1.49323e+01 -9.80149e-02
       C -5.85767e-01 -1.62025e+01 -1.57688e-01
       C  2.25874e+00 -1.61035e+01 -1.34055e-01
       C  1.92482e-01 -1.24776e+01 -1.27696e-01
       C  1.50095e+00 -1.24338e+01  6.03123e-02
       C -6.69172e-01 -1.37306e+01 -1.23821e-01
       C  2.33095e+00 -1.37285e+01  2.91061e-02
       H  6.06005e+00 -1.03083e+01  5.79091e+00
       C  5.50183e+00 -9.52933e+00  5.01379e+00
       C  5.87342e+00 -8.10879e+00  5.12948e+00
       H  7.06658e+00 -7.83884e+00  5.51118e+00
       C  4.98431e+00 -7.12541e+00  4.61484e+00
       H  5.32955e+00 -6.20300e+00  5.22150e+00
       C  4.03743e+00 -7.45607e+00  3.89488e+00
       H  3.22660e+00 -6.69460e+00  3.60360e+00
       C  3.66642e+00 -8.71751e+00  3.52751e+00
       H  2.73025e+00 -9.13223e+00  2.94798e+00
       C  4.49745e+00 -9.79836e+00  4.06876e+00
       H  4.02569e+00 -1.08607e+01  3.66541e+00
140
# CELL(abcABC):   17.14040    19.79200    30.00000    90.00000    90.00000    90.00000  Step:         100  Bead:       4 positions{angstrom}  cell{angstrom}
       C  4.38299e+00 -9.89925e+00 -1.12919e-01
       C  5.83289e+00 -9.86809e+00 -3.10227e-02
       C  3.73503e+00 -1.12009e+01 -1.33392e-01
       C  6.57461e+00 -1.12018e+01 -8.98364e-02
       C  4.40221e+00 -7.44977e+00 -7.27321e-02
       C  5.84214e+00 -7.43126e+00 -1.91917e-01
       C  3.70135e+00 -8.66868e+00 -2.24916e-02
       C  6.52100e+00 -8.70018e+00 -1.73626e-01
       C  4.38702e+00 -4.94898e+00  4.49162e-02
       C  5.81230e+00 -4.96212e+00 -1.56498e-01
       C  3.74772e+00 -6.20140e+00 -1.79268e-02
       C  6.57521e+00 -6.29741e+00 -1.65500e-01
       C  4.46503e+00 -2.47468e+00 -5.00295e-02
       C  5.86513e+00 -2.47978e+00 -1.13410e-01
       C  3.70414e+00 -3.74850e+00 -5.94067e-03
       C  6.56320e+00 -3.78459e+00 -1.90047e-01
       C  8.74768e+00 -9.92294e+00 -1.14056e-01
       C  1.02434e+01 -9.88346e+00  2.29874e-02
       C  7.97639e+00 -1.11826e+01 -5.77490e-02
       C  1.08490e+01 -1.11161e+01  5.23115e-02
       C  8.64957e+00 -7.44514e+00 -2.47971e-01
       C  1.01031e+01 -7.40247e+00 -1.30698e-01
       C  7.90608e+00 -8.70825e+00 -6.50528e-02
       C  1.08923e+01 -8.65255e+00 -1.03929e-01
       C  8.68529e+00 -5.04919e+00 -9.85242e-02
       C  1.00869e+01 -4.92524e+00 -1.03741e-01
       C  8.00166e+00 -6.16634e+00 -2.78830e-01
       C  1.08161e+01 -6.20819e+00 -3.73853e-02
       C  8.78170e+00 -2.50596e+00 -7.22268e-02
       C  1.01346e+01 -2.54649e+00 -1.11892e-02
       C  7.88305e+00 -3.72454e+00 -1.79886e-01
       C  1.08893e+01 -3.70148e+00 -1.15219e-01
       C  1.29792e+01 -9.93681e+00 -1.64891e-01
       C  1.43908e+01 -9.93763e+00 -2.22002e-01
       C  1.22015e+01 -1.11704e+01 -3.02439e-01
       C  1.51167e+01 -1.11683e+01 -1.58683e-01
       C  1.29191e+01 -7.53894e+00 -3.01551e-01
       C  1.43704e+01 -7.44349e+00 -3.67518e-01
       C  1.22250e+01 -8.66020e+00 -2.17613e-01
       C  1.51055e+01 -8.74811e+00 -2.06336e-01
       C  1.30131e+01 -5.02802e+00 -9.23126e-02
       C  1.44649e+01 -5.02494e+00 -7.33697e-02
       C  1.22126e+01 -6.24011e+00 -2.06535e-01
       C  1.51464e+01 -6.28111e+00 -1.55795e-01
       C  1.30795e+01 -2.48325e+00 -6.44686e-02
       C  1.44514e+01 -2.49062e+00 -3.86261e-02
       C  1.23114e+01 -3.79474e+00 -1.88078e-01
       C  1.52070e+01 -3.78660e+00  1.61132e-02
       C  1.60393e-01 -1.00447e+01 -6.62631e-02
       C  1.44544e+00 -9.95212e+00 -4.03904e-03
       C -6.09582e-01 -1.11544e+01 -6.84601e-02
       C  2.30443e+00 -1.11389e+01 -1.58135e-01
       C  1.07327e-01 -7.42976e+00 -2.16211e-01
       C  1.65981e+00 -7.48563e+00 -2.59911e-01
       C -6.13096e-01 -8.83501e+00 -2.32125e-01
       C  2.30491e+00 -8.75665e+00 -9.65204e-02
       C  1.04766e-01 -5.05133e+00 -2.27032e-01
       C  1.59520e+00 -4.97508e+00 -2.44650e-01
       C -5.90521e-01 -6.27194e+00 -3.15646e-01
       C  2.34851e+00 -6.22203e+00 -1.16171e-01
       C  1.77854e-01 -2.52644e+00 -2.08563e-01
       C  1.57887e+00 -2.54210e+00 -1.42000e-01
       C -5.76653e-01 -3.83000e+00 -2.25861e-01
       C  2.25110e+00 -3.74971e+00 -4.51884e-02
       C  4.37763e+00 -6.15229e-02 -8.68771e-03
       C  5.84623e+00 -4.27723e-02 -8.96047e-02
       C  3.68653e+00 -1.32821e+00 -4.97264e-02
       C  6.58738e+00 -1.26483e+00 -1.72745e-01
       C  4.41944e+00 -1.74437e+01 -1.53398e-01
       C  5.88790e+00 -1.73965e+01  5.16283e-02
       C  3.66371e+00 -1.86441e+01  3.42231e-03
       C  6.57113e+00 -1.86601e+01 -4.85597e-02
       C  4.44024e+00 -1.49437e+01 -5.33674e-02
       C  5.83625e+00 -1.49755e+01  5.93709e-02
       C  3.76561e+00 -1.61531e+01 -1.05476e-01
       C  6.62093e+00 -1.62380e+01  1.22642e-01
       C  4.38278e+00 -1.24550e+01 -2.85088e-02
       C  5.75231e+00 -1.25289e+01  9.56018e-03
       C  3.77614e+00 -1.37008e+01 -1.04486e-01
       C  6.48145e+00 -1.36594e+01  9.78733e-02
       C  8.75032e+00 -3.88354e-02  8.68202e-03
       C  1.02279e+01 -4.94107e-02  3.67640e-02
       C  8.02290e+00 -1.22494e+00 -4.79308e-02
       C  1.09274e+01 -1.31546e+00  3.23831e-02
       C  8.73839e+00 -1.73949e+01 -7.28296e-02
       C  1.02042e+01 -1.73399e+01 -3.28942e-02
       C  8.03226e+00 -1.85554e+01  9.84294e-02
       C  1.08731e+01 -1.84468e+01 -1.43971e-02
       C  8.70166e+00 -1.49689e+01  1.68703e-01
       C  1.01894e+01 -1.49262e+01  9.27047e-02
       C  8.01199e+00 -1.61645e+01 -7.14673e-03
       C  1.09338e+01 -1.60574e+01 -8.31677e-02
       C  8.64148e+00 -1.24597e+01 -4.45784e-02
       C  1.00715e+01 -1.23995e+01  4.92015e-02
       C  7.99325e+00 -1.36242e+01  9.14211e-02
       C  1.08782e+01 -1.36700e+01  9.34368e-02
       C  1.29461e+01 -9.51218e-02 -1.20321e-01
       C  1.44629e+01 -7.21695e-02  7.03916e-02
       C  1.22993e+01 -1.26798e+00 -1.25841e-01
       C  1.51468e+01 -1.27535e+00  5.15373e-02
       C  1.30090e+01 -1.73894e+01  5.79089e-02
       C  1.45137e+01 -1.73654e+01 -1.79094e-01
       C  1.23250e+01 -1.85837e+01 -1.57284e-02
       C  1.50609e+01 -1.85056e+01 -8.13505e-02
       C  1.30282e+01 -1.48877e+01 -1.74258e-02
       C  1.45103e+01 -1.49071e+01 -7.19070e-02
       C  1.22806e+01 -1.61614e+01  8.53533e-02
       C  1.51381e+01 -1.61672e+01 -9.36348e-02
       C  1.29732e+01 -1.24114e+01 -2.12267e-01
       C  1.43344e+01 -1.23937e+01 -2.53642e-02
       C  1.23147e+01 -1.36474e+01 -6.84740e-02
       C  1.51216e+01 -1.36652e+01 -9.37927e-02
       C  1.72279e-01 -4.16249e-03 -3.40741e-02
       C  1.62408e+00 -1.83770e-02 -1.35539e-02
       C -4.87747e-01 -1.30118e+00 -1.30565e-01
       C  2.25533e+00 -1.27138e+00 -5.03588e-02
       C  2.29806e-01 -1.73666e+01 -1.39112e-01
       C  1.60653e+00 -1.74128e+01  3.27351e-02
       C -5.73357e-01 -1.86263e+01 -1.10047e-01
       C  2.26901e+00 -1.86791e+01 -5.14070e-02
       C  2.68029e-01 -1.49170e+01 -1.68926e-01
       C  1.59980e+00 -1.49636e+01 -1.37813e-01
       C -5.93764e-01 -1.61557e+01 -1.07981e-01
       C  2.33129e+00 -1.61955e+01 -5.54614e-02
       C  1.57726e-01 -1.24687e+01 -6.83310e-02
       C  1.64627e+00 -1.24874e+01 -1.05517e-01
       C -6.28017e-01 -1.36394e+01 -1.78194e-01
       C  2.27331e+00 -1.36910e+01 -1.51963e-01
       H  5.98812e+00 -1.05052e+01  5.43339e+00
       C  5.37045e+00 -9.49755e+00  4.98499e+00
       C  5.89551e+00 -8.23779e+00  5.04541e+00
       H  6.71810e+00 -7.90212e+00  5.49406e+00
       C  5.14425e+00 -7.14719e+00  4.60157e+00
       H  5.64080e+00 -6.19121e+00  4.70175e+00
       C  3.98141e+00 -7.37142e+00  3.86924e+00
       H  3.32537e+00 -6.50840e+00  3.74300e+00
       C  3.48937e+00 -8.63483e+00  3.72599e+00
       H  2.52486e+00 -8.58837e+00  3.10590e+00
       C  4.17945e+00 -9.66817e+00  4.21387e+00
       H  3.87461e+00 -1.07157e+01  4.13726e+00
