140
# CELL(abcABC):   17.14040    19.79200    30.00000    90.00000    90.00000    90.00000  Step:           0  Bead:      31 positions{angstrom}  cell{angstrom}
       C  4.38729e+00 -1.00243e+01 -1.28352e-01
       C  5.81632e+00 -1.00084e+01 -5.88724e-02
       C  3.75184e+00 -1.11503e+01 -2.14169e-02
       C  6.53166e+00 -1.11538e+01 -2.30863e-01
       C  4.47903e+00 -7.49794e+00 -2.91058e-02
       C  5.88384e+00 -7.52169e+00 -1.24421e-01
       C  3.74836e+00 -8.80989e+00 -5.59216e-02
       C  6.55623e+00 -8.75948e+00 -1.67649e-01
       C  4.37622e+00 -5.08781e+00 -1.96342e-01
       C  5.83755e+00 -5.09276e+00 -1.70698e-01
       C  3.73096e+00 -6.29455e+00 -7.68502e-02
       C  6.54389e+00 -6.22216e+00 -1.14797e-01
       C  4.43972e+00 -2.56783e+00 -7.23056e-02
       C  5.89597e+00 -2.50056e+00 -2.21228e-01
       C  3.70329e+00 -3.82620e+00 -3.16100e-01
       C  6.53319e+00 -3.76387e+00 -1.81935e-01
       C  8.73888e+00 -9.98395e+00 -1.13770e-01
       C  1.01308e+01 -9.98455e+00 -5.54380e-02
       C  7.92049e+00 -1.12225e+01  7.30651e-02
       C  1.08974e+01 -1.12014e+01 -4.27438e-02
       C  8.71411e+00 -7.51529e+00 -9.18386e-02
       C  1.02220e+01 -7.47520e+00 -1.10625e-01
       C  7.98794e+00 -8.75730e+00 -1.44546e-01
       C  1.09186e+01 -8.71334e+00 -2.05633e-01
       C  8.76397e+00 -4.98482e+00 -1.05219e-01
       C  1.01941e+01 -4.97837e+00 -2.47902e-01
       C  8.06315e+00 -6.25933e+00 -1.00431e-01
       C  1.08470e+01 -6.24388e+00 -2.10856e-01
       C  8.68648e+00 -2.54680e+00 -2.32063e-01
       C  1.01584e+01 -2.49843e+00 -2.75045e-01
       C  7.95667e+00 -3.78580e+00 -1.74279e-01
       C  1.08997e+01 -3.70498e+00 -2.90911e-02
       C  1.29229e+01 -9.93518e+00 -1.95976e-01
       C  1.44492e+01 -9.89067e+00 -1.38712e-01
       C  1.23348e+01 -1.11595e+01  3.76924e-02
       C  1.51130e+01 -1.12131e+01 -1.42482e-01
       C  1.30197e+01 -7.46380e+00 -1.08160e-02
       C  1.44069e+01 -7.50537e+00 -1.67936e-01
       C  1.22656e+01 -8.71564e+00 -1.50164e-01
       C  1.50882e+01 -8.62569e+00 -1.69626e-01
       C  1.30040e+01 -4.98610e+00 -1.56211e-01
       C  1.44974e+01 -4.99922e+00 -1.72893e-01
       C  1.23264e+01 -6.19610e+00 -1.55879e-01
       C  1.51112e+01 -6.24176e+00 -1.44818e-01
       C  1.29994e+01 -2.54845e+00 -6.64651e-03
       C  1.44781e+01 -2.50421e+00 -2.59942e-02
       C  1.22766e+01 -3.78932e+00 -1.18022e-01
       C  1.51064e+01 -3.67730e+00 -6.03761e-02
       C  4.16487e-02 -9.94369e+00 -2.03134e-01
       C  1.48781e+00 -1.00002e+01 -2.30032e-02
       C -6.15202e-01 -1.11455e+01 -1.32643e-01
       C  2.28192e+00 -1.12458e+01 -2.91756e-02
       C  1.37682e-01 -7.47710e+00 -6.77838e-02
       C  1.55513e+00 -7.45980e+00 -1.26968e-01
       C -5.76926e-01 -8.80760e+00 -2.00755e-01
       C  2.24520e+00 -8.74560e+00 -1.00549e-01
       C  1.85426e-01 -5.00600e+00 -4.02774e-02
       C  1.58228e+00 -5.00473e+00 -7.61798e-02
       C -5.26925e-01 -6.30105e+00 -1.51705e-01
       C  2.33084e+00 -6.23341e+00  1.13181e-02
       C  1.30332e-01 -2.52129e+00  3.11365e-03
       C  1.51205e+00 -2.52837e+00 -5.23654e-03
       C -5.80727e-01 -3.78418e+00 -8.30080e-02
       C  2.27064e+00 -3.73834e+00 -1.63799e-01
       C  4.44924e+00 -4.70406e-02 -8.98070e-02
       C  5.90156e+00 -1.00226e-01 -2.47253e-02
       C  3.73348e+00 -1.20153e+00 -8.90717e-02
       C  6.61057e+00 -1.35452e+00 -7.20828e-02
       C  4.39608e+00 -1.73653e+01 -9.39364e-02
       C  5.86243e+00 -1.73838e+01 -1.02443e-01
       C  3.71056e+00 -1.85708e+01 -1.15781e-01
       C  6.59382e+00 -1.85779e+01  1.94812e-01
       C  4.45403e+00 -1.49117e+01 -2.56447e-02
       C  5.85009e+00 -1.49409e+01 -3.31288e-02
       C  3.63501e+00 -1.60873e+01 -2.09617e-03
       C  6.56855e+00 -1.61386e+01  5.79635e-02
       C  4.42507e+00 -1.24341e+01 -1.10715e-01
       C  5.91236e+00 -1.24309e+01 -1.74604e-01
       C  3.70214e+00 -1.36927e+01 -5.96766e-02
       C  6.62228e+00 -1.36154e+01 -1.32689e-01
       C  8.70572e+00 -2.15707e-02 -3.13952e-02
       C  1.01739e+01 -4.97344e-02 -1.06031e-01
       C  7.99472e+00 -1.27258e+00 -7.28110e-03
       C  1.07526e+01 -1.30076e+00 -8.52887e-02
       C  8.71179e+00 -1.73584e+01  2.78298e-01
       C  1.01194e+01 -1.73390e+01  1.30413e-01
       C  7.93490e+00 -1.86480e+01  3.47413e-02
       C  1.07809e+01 -1.86266e+01 -3.85023e-02
       C  8.69706e+00 -1.49095e+01 -3.60810e-02
       C  1.02242e+01 -1.49202e+01 -1.67191e-02
       C  8.04847e+00 -1.61193e+01  1.81079e-02
       C  1.08654e+01 -1.61815e+01 -1.04557e-02
       C  8.76171e+00 -1.24468e+01  1.13294e-01
       C  1.01289e+01 -1.23624e+01 -4.30528e-02
       C  7.99036e+00 -1.36312e+01 -7.58533e-02
       C  1.08943e+01 -1.36880e+01 -4.27160e-02
       C  1.29935e+01 -1.24085e-02 -1.45733e-01
       C  1.43922e+01 -3.52198e-02  3.18137e-02
       C  1.23456e+01 -1.29301e+00 -1.35785e-03
       C  1.50967e+01 -1.24066e+00 -2.80027e-02
       C  1.29913e+01 -1.73696e+01 -6.10277e-02
       C  1.44872e+01 -1.73726e+01  7.84383e-03
       C  1.21958e+01 -1.85710e+01 -1.75156e-01
       C  1.51033e+01 -1.85996e+01  7.54894e-02
       C  1.29843e+01 -1.49417e+01 -1.97998e-01
       C  1.43935e+01 -1.49226e+01 -1.04150e-01
       C  1.22067e+01 -1.62310e+01 -1.63131e-01
       C  1.50841e+01 -1.61895e+01 -1.69374e-01
       C  1.30023e+01 -1.23601e+01  3.23024e-02
       C  1.43927e+01 -1.23743e+01 -7.48244e-02
       C  1.23306e+01 -1.35763e+01 -3.27990e-02
       C  1.50330e+01 -1.36573e+01 -7.48424e-02
       C  1.66366e-01 -8.19208e-02  8.37951e-03
       C  1.55468e+00 -5.76211e-02 -5.17137e-03
       C -6.57066e-01 -1.28779e+00  3.46675e-02
       C  2.28586e+00 -1.31649e+00 -4.70234e-02
       C  1.03316e-01 -1.73459e+01 -2.37153e-01
       C  1.54059e+00 -1.72933e+01 -1.56493e-01
       C -7.01685e-01 -1.86075e+01 -6.77309e-02
       C  2.25353e+00 -1.86213e+01 -1.98617e-01
       C  1.33985e-01 -1.48646e+01 -1.35420e-01
       C  1.55896e+00 -1.49298e+01 -1.36123e-01
       C -6.13882e-01 -1.61655e+01 -1.93626e-01
       C  2.31969e+00 -1.61326e+01 -1.77316e-01
       C  1.66685e-01 -1.24266e+01 -4.98395e-02
       C  1.49097e+00 -1.24823e+01  7.84626e-02
       C -6.43538e-01 -1.36603e+01 -1.22077e-01
       C  2.25577e+00 -1.37353e+01  6.41054e-02
       H  5.92989e+00 -1.02512e+01  5.65258e+00
       C  5.48919e+00 -9.43387e+00  5.02245e+00
       C  5.85119e+00 -8.16764e+00  5.12597e+00
       H  7.00804e+00 -8.08510e+00  5.54712e+00
       C  4.98517e+00 -7.08436e+00  4.61221e+00
       H  5.18987e+00 -6.14788e+00  5.07166e+00
       C  3.97811e+00 -7.41004e+00  3.86438e+00
       H  3.26497e+00 -6.58896e+00  3.63234e+00
       C  3.72123e+00 -8.76715e+00  3.47111e+00
       H  2.81790e+00 -8.86347e+00  2.58956e+00
       C  4.51291e+00 -9.82738e+00  4.08381e+00
       H  4.20558e+00 -1.09570e+01  3.64062e+00
140
# CELL(abcABC):   17.14040    19.79200    30.00000    90.00000    90.00000    90.00000  Step:         100  Bead:      31 positions{angstrom}  cell{angstrom}
       C  4.43883e+00 -9.95197e+00 -1.56153e-01
       C  5.82823e+00 -9.92924e+00 -6.12827e-02
       C  3.70308e+00 -1.11870e+01 -1.36689e-01
       C  6.49054e+00 -1.11917e+01 -8.12574e-02
       C  4.43378e+00 -7.44121e+00 -5.21222e-02
       C  5.82245e+00 -7.39492e+00 -1.04205e-01
       C  3.66435e+00 -8.71427e+00 -6.40949e-02
       C  6.50831e+00 -8.73893e+00 -8.41687e-02
       C  4.42406e+00 -5.02675e+00  6.89581e-02
       C  5.81672e+00 -4.98829e+00 -2.57509e-01
       C  3.67905e+00 -6.21330e+00 -5.99228e-02
       C  6.58424e+00 -6.21693e+00 -2.16224e-01
       C  4.49500e+00 -2.54090e+00  5.60758e-02
       C  5.89684e+00 -2.49156e+00 -6.45734e-02
       C  3.77308e+00 -3.77678e+00  3.98384e-02
       C  6.56162e+00 -3.72398e+00 -1.71373e-01
       C  8.74747e+00 -9.91413e+00 -9.38551e-02
       C  1.01900e+01 -9.85231e+00 -1.04022e-02
       C  7.98438e+00 -1.11634e+01 -5.13830e-02
       C  1.08963e+01 -1.11169e+01  4.46989e-02
       C  8.59970e+00 -7.41100e+00 -2.64422e-01
       C  1.00959e+01 -7.37742e+00 -1.81323e-01
       C  7.92441e+00 -8.67052e+00 -7.85008e-02
       C  1.08865e+01 -8.60588e+00 -1.24271e-01
       C  8.69524e+00 -5.01771e+00 -5.63885e-02
       C  1.01337e+01 -4.90426e+00 -8.72653e-02
       C  7.98191e+00 -6.18751e+00 -2.27813e-01
       C  1.07826e+01 -6.18180e+00 -4.30465e-02
       C  8.76133e+00 -2.51334e+00 -1.06639e-01
       C  1.01175e+01 -2.51582e+00 -1.12280e-01
       C  7.93034e+00 -3.76151e+00 -1.22885e-01
       C  1.09117e+01 -3.72300e+00 -4.91282e-02
       C  1.30040e+01 -9.91761e+00 -1.79914e-01
       C  1.43760e+01 -9.98425e+00 -1.39304e-01
       C  1.22839e+01 -1.11911e+01 -2.47527e-01
       C  1.51807e+01 -1.12023e+01 -1.32247e-01
       C  1.29742e+01 -7.48740e+00 -3.20128e-01
       C  1.43826e+01 -7.48865e+00 -3.77576e-01
       C  1.22477e+01 -8.69725e+00 -2.38727e-01
       C  1.50911e+01 -8.71854e+00 -1.64398e-01
       C  1.29474e+01 -4.98823e+00 -1.34850e-01
       C  1.44049e+01 -4.98264e+00 -4.84973e-02
       C  1.22125e+01 -6.24361e+00 -1.78703e-01
       C  1.50728e+01 -6.30293e+00 -1.73404e-01
       C  1.30924e+01 -2.49824e+00 -2.78171e-02
       C  1.44881e+01 -2.50198e+00  3.59295e-02
       C  1.22343e+01 -3.83664e+00 -1.49232e-01
       C  1.51845e+01 -3.80961e+00 -5.39508e-04
       C  1.19483e-01 -9.98620e+00 -3.74607e-02
       C  1.48089e+00 -9.96122e+00 -7.33211e-02
       C -5.60348e-01 -1.11411e+01 -1.01944e-01
       C  2.31015e+00 -1.12278e+01 -1.84599e-01
       C  7.65639e-02 -7.45707e+00 -3.11779e-01
       C  1.69653e+00 -7.48991e+00 -3.18052e-01
       C -6.12319e-01 -8.80653e+00 -2.24037e-01
       C  2.28509e+00 -8.74353e+00 -4.94172e-02
       C  3.14192e-02 -5.06235e+00 -2.31475e-01
       C  1.59485e+00 -4.98445e+00 -2.36518e-01
       C -6.21840e-01 -6.32946e+00 -3.10157e-01
       C  2.32238e+00 -6.20016e+00 -7.63033e-02
       C  1.11421e-01 -2.52570e+00 -1.87873e-01
       C  1.60064e+00 -2.59386e+00 -1.75627e-01
       C -6.09441e-01 -3.77107e+00 -2.02061e-01
       C  2.31164e+00 -3.79919e+00 -3.50608e-02
       C  4.33801e+00 -9.01163e-02 -5.28561e-02
       C  5.87402e+00 -7.18675e-02 -7.42467e-02
       C  3.74444e+00 -1.34651e+00 -9.78510e-02
       C  6.64497e+00 -1.29238e+00 -1.07707e-01
       C  4.42048e+00 -1.74233e+01 -1.50236e-01
       C  5.85369e+00 -1.74344e+01  5.27820e-02
       C  3.67465e+00 -1.87122e+01 -1.56303e-02
       C  6.61185e+00 -1.86189e+01 -4.12592e-02
       C  4.36952e+00 -1.48830e+01 -9.60376e-02
       C  5.85986e+00 -1.49400e+01  1.14047e-01
       C  3.76272e+00 -1.60721e+01 -1.28872e-01
       C  6.65125e+00 -1.61629e+01  7.28289e-02
       C  4.34087e+00 -1.24941e+01 -5.49905e-02
       C  5.85118e+00 -1.24909e+01  8.28155e-02
       C  3.73621e+00 -1.36686e+01 -1.88947e-01
       C  6.53492e+00 -1.37376e+01  9.37262e-02
       C  8.81801e+00 -3.13167e-02  5.56702e-02
       C  1.01812e+01 -9.89912e-02  4.17553e-02
       C  8.01479e+00 -1.24912e+00 -1.01686e-01
       C  1.08874e+01 -1.37011e+00  3.04309e-02
       C  8.73414e+00 -1.74399e+01 -3.60725e-02
       C  1.01324e+01 -1.73492e+01 -5.11845e-02
       C  8.06335e+00 -1.85874e+01  3.53402e-02
       C  1.08588e+01 -1.85229e+01 -1.89372e-02
       C  8.76259e+00 -1.49105e+01  1.28268e-01
       C  1.02201e+01 -1.48381e+01  6.80844e-02
       C  8.01889e+00 -1.61456e+01 -2.31827e-02
       C  1.08607e+01 -1.61135e+01 -8.24801e-02
       C  8.61954e+00 -1.24261e+01 -6.91703e-02
       C  1.00770e+01 -1.23935e+01  1.08228e-01
       C  7.93529e+00 -1.36303e+01  7.27029e-02
       C  1.08794e+01 -1.35713e+01  7.80493e-02
       C  1.29556e+01 -6.06221e-02 -1.27568e-01
       C  1.44850e+01 -6.62139e-02  1.40610e-02
       C  1.23213e+01 -1.26768e+00 -4.72008e-02
       C  1.51543e+01 -1.26056e+00  3.49308e-03
       C  1.30700e+01 -1.73609e+01  6.72747e-02
       C  1.44577e+01 -1.74326e+01 -2.38799e-01
       C  1.23148e+01 -1.85644e+01  3.50993e-03
       C  1.50813e+01 -1.85896e+01 -4.33555e-02
       C  1.30149e+01 -1.48723e+01 -3.88920e-02
       C  1.44986e+01 -1.49392e+01 -8.96114e-02
       C  1.22829e+01 -1.61422e+01 -2.00157e-02
       C  1.51226e+01 -1.61787e+01 -1.50647e-01
       C  1.29811e+01 -1.24522e+01 -1.73284e-01
       C  1.43627e+01 -1.24021e+01 -8.44165e-02
       C  1.23131e+01 -1.36522e+01 -7.47008e-02
       C  1.51309e+01 -1.37076e+01 -1.22818e-01
       C  1.53399e-01 -8.77635e-04 -3.93991e-02
       C  1.59796e+00 -4.66151e-02 -1.45344e-02
       C -5.27768e-01 -1.27314e+00 -1.18906e-01
       C  2.25588e+00 -1.32910e+00 -8.01425e-02
       C  2.60858e-01 -1.74365e+01 -1.75317e-01
       C  1.62681e+00 -1.73808e+01  8.15926e-02
       C -5.64305e-01 -1.85929e+01 -1.24602e-01
       C  2.29536e+00 -1.86585e+01 -8.03260e-03
       C  2.01124e-01 -1.50122e+01 -2.02810e-01
       C  1.59585e+00 -1.49853e+01 -1.72929e-01
       C -5.83606e-01 -1.61539e+01 -1.45710e-01
       C  2.30412e+00 -1.62420e+01 -8.46226e-02
       C  1.10082e-01 -1.24738e+01 -8.56001e-02
       C  1.63875e+00 -1.24955e+01 -1.36774e-01
       C -5.85779e-01 -1.36432e+01 -2.33252e-01
       C  2.26224e+00 -1.36534e+01 -1.20125e-01
       H  5.98247e+00 -1.03371e+01  5.51913e+00
       C  5.34378e+00 -9.50025e+00  4.96886e+00
       C  5.85093e+00 -8.23480e+00  5.06165e+00
       H  6.94022e+00 -7.84877e+00  5.39860e+00
       C  5.14079e+00 -7.17435e+00  4.55944e+00
       H  5.54192e+00 -6.15861e+00  4.77455e+00
       C  3.98669e+00 -7.33224e+00  3.84981e+00
       H  3.30543e+00 -6.48233e+00  3.67657e+00
       C  3.41308e+00 -8.65988e+00  3.70539e+00
       H  2.57509e+00 -8.77331e+00  2.91882e+00
       C  4.14795e+00 -9.68556e+00  4.24126e+00
       H  3.73083e+00 -1.07740e+01  4.04469e+00
